1

   Abaqus 2021                                  Date 14-Feb-2023   Time 14:19:51
   For use by HARVARD COLLEGE PRESIDENT AND FELLOWS OF under license from Dassault Systemes or its subsidiary.

                                                                                 
                                                                                 
 STEP    1     INCREMENT     1     STEP TIME    0.00    


                        S T E P       1     D Y N A M I C   A N A L Y S I S - I M P L I C I T  I N T E G R A T I O N


                                                                                          

          DYNAMIC APPLICATION PACKED SCHEME IS                 QUASI-STATIC        
          BACKWARD EULER (BWE) TIME INTEGRATOR IS USED

     AUTOMATIC TIME CONTROL WITH -
          A SUGGESTED INITIAL TIME INCREMENT OF                0.100    
          AND A TOTAL TIME PERIOD OF                            2.00    
          THE MINIMUM TIME INCREMENT ALLOWED IS                5.000E-12
          THE MAXIMUM TIME INCREMENT ALLOWED IS                 2.00    

          THE HALF-INCREMENT RESIDUALS WILL NOT BE CALCULATED

          INITIAL ACCELERATIONS WILL NOT BE CALCULATED
          AGGRESSIVE   TIME INCREMENTATION IS USED
          STEP AMPLITUDE IS                                    RAMP

 CONVERGENCE TOLERANCE PARAMETERS FOR FORCE    
     CRITERION FOR RESIDUAL FORCE     FOR A NONLINEAR PROBLEM          5.000E-03
     CRITERION FOR DISP.    CORRECTION IN A NONLINEAR PROBLEM          1.000E-02
     INITIAL VALUE OF TIME AVERAGE FORCE                               1.000E-02
     AVERAGE FORCE     IS TIME AVERAGE FORCE    
     ALTERNATE CRIT. FOR RESIDUAL FORCE     FOR A NONLINEAR PROBLEM    2.000E-02
     CRITERION FOR ZERO FORCE     RELATIVE TO TIME AVRG. FORCE         1.000E-05
     CRITERION FOR RESIDUAL FORCE     WHEN THERE IS ZERO FLUX          1.000E-05
     CRITERION FOR DISP.    CORRECTION WHEN THERE IS ZERO FLUX         1.000E-03
     CRITERION FOR RESIDUAL FORCE     FOR A LINEAR INCREMENT           1.000E-08
     FIELD CONVERSION RATIO                                             1.00    
     CRITERION FOR ZERO FORCE     REL. TO TIME AVRG. MAX. FORCE        1.000E-05
     CRITERION FOR ZERO DISP.    RELATIVE TO CHARACTERISTIC LENGTH     1.000E-08

 CONVERGENCE TOLERANCE PARAMETERS FOR MOMENT   
     CRITERION FOR RESIDUAL MOMENT    FOR A NONLINEAR PROBLEM          5.000E-03
     CRITERION FOR ROTATION CORRECTION IN A NONLINEAR PROBLEM          1.000E-02
     INITIAL VALUE OF TIME AVERAGE MOMENT                              1.000E-02
     AVERAGE MOMENT    IS TIME AVERAGE MOMENT   
     ALTERNATE CRIT. FOR RESIDUAL MOMENT    FOR A NONLINEAR PROBLEM    2.000E-02
     CRITERION FOR ZERO MOMENT    RELATIVE TO TIME AVRG. MOMENT        1.000E-05
     CRITERION FOR RESIDUAL MOMENT    WHEN THERE IS ZERO FLUX          1.000E-05
     CRITERION FOR ROTATION CORRECTION WHEN THERE IS ZERO FLUX         1.000E-03
     CRITERION FOR RESIDUAL MOMENT    FOR A LINEAR INCREMENT           1.000E-08
     FIELD CONVERSION RATIO                                             1.00    
     CRITERION FOR ZERO MOMENT    REL. TO TIME AVRG. MAX. MOMENT       1.000E-05

     VOLUMETRIC STRAIN COMPATIBILITY TOLERANCE FOR HYBRID SOLIDS       1.000E-05
     AXIAL STRAIN COMPATIBILITY TOLERANCE FOR HYBRID BEAMS             1.000E-05
     TRANS. SHEAR STRAIN COMPATIBILITY TOLERANCE FOR HYBRID BEAMS      1.000E-05
     SOFT CONTACT CONSTRAINT COMPATIBILITY TOLERANCE FOR P>P0          5.000E-03
     SOFT CONTACT CONSTRAINT COMPATIBILITY TOLERANCE FOR P=0.0         0.100    
     CONTACT FORCE ERROR TOLERANCE FOR CONVERT SDI=YES                 1.00    
     DISPLACEMENT COMPATIBILITY TOLERANCE FOR DCOUP ELEMENTS           1.000E-05
     ROTATION COMPATIBILITY TOLERANCE FOR DCOUP ELEMENTS               1.000E-05

 EQUILIBRIUM WILL BE CHECKED FOR SEVERE DISCONTINUITY ITERATIONS

 TIME INCREMENTATION CONTROL PARAMETERS:
     FIRST EQUILIBRIUM ITERATION FOR CONSECUTIVE DIVERGENCE CHECK              4
     EQUILIBRIUM ITERATION AT WHICH LOG. CONVERGENCE RATE CHECK BEGINS         8
     EQUILIBRIUM ITERATION AFTER WHICH ALTERNATE RESIDUAL IS USED              9
     MAXIMUM EQUILIBRIUM ITERATIONS ALLOWED                                   16
     EQUILIBRIUM ITERATION COUNT FOR CUT-BACK IN NEXT INCREMENT               10
     MAXIMUM EQUILIB. ITERS IN TWO INCREMENTS FOR TIME INCREMENT INCREASE      4
     MAXIMUM ITERATIONS FOR SEVERE DISCONTINUITIES                            50
 *** MAXIMUM ATTEMPTS ALLOWED IN AN INCREMENT                                 25
     MAXIMUM DISCON. ITERS IN TWO INCREMENTS FOR TIME INCREMENT INCREASE      50
     MAXIMUM CONTACT AUGMENTATIONS FOR *SURFACE BEHAVIOR,AUGMENTED LAGRANGE   50
     CUT-BACK FACTOR AFTER DIVERGENCE                                 0.2500    
     CUT-BACK FACTOR FOR TOO SLOW CONVERGENCE                         0.5000    
     CUT-BACK FACTOR AFTER TOO MANY EQUILIBRIUM ITERATIONS            0.7500    
     CUT-BACK FACTOR AFTER TOO MANY SEVERE DISCONTINUITY ITERATIONS   0.2500    
     CUT-BACK FACTOR AFTER PROBLEMS IN ELEMENT ASSEMBLY               0.2500    
     INCREASE FACTOR AFTER TWO INCREMENTS THAT CONVERGE QUICKLY        1.500    
     MAX. TIME INCREMENT INCREASE FACTOR ALLOWED                       1.500    
     MAX. TIME INCREMENT INCREASE FACTOR ALLOWED (DYNAMICS)            1.250    
     MAX. TIME INCREMENT INCREASE FACTOR ALLOWED (DIFFUSION)           2.000    
     MINIMUM TIME INCREMENT RATIO FOR EXTRAPOLATION TO OCCUR          0.1000    
     MAX. RATIO OF TIME INCREMENT TO STABILITY LIMIT                   1.000    
     FRACTION OF STABILITY LIMIT FOR NEW TIME INCREMENT               0.9500    
     TIME INCREMENT INCREASE FACTOR BEFORE A TIME POINT                1.000    

 *** INDICATES USE OF NON-DEFAULT TIME INCREMENTATION CONTROL PARAMETER
     SELECTED WITH *CONTROLS
     GLOBAL STABILIZATION CONTROL IS NOT USED

          PRINT OF INCREMENT NUMBER, TIME, ETC., EVERY    1  INCREMENTS

     THE MAXIMUM NUMBER OF INCREMENTS IN THIS STEP IS                     500

          LARGE DISPLACEMENT THEORY WILL BE USED

     LINEAR EXTRAPOLATION WILL BE USED

     CHARACTERISTIC ELEMENT LENGTH     0.851    

     DETAILS REGARDING ACTUAL SOLUTION WAVEFRONT REQUESTED

     DETAILED OUTPUT OF DIAGNOSTICS TO DATABASE REQUESTED

     PRINT OF INCREMENT NUMBER, TIME, ETC., TO THE MESSAGE FILE EVERY     1  INCREMENTS
          THE INITIAL TIME INCREMENT WAS REDUCED TO   7.400E-02 TO MEET THE NEXT OUTPUT TIME POINT

     COLLECTING MODEL CONSTRAINT INFORMATION FOR OVERCONSTRAINT CHECKS

     COLLECTING STEP CONSTRAINT INFORMATION FOR OVERCONSTRAINT CHECKS


  INCREMENT     1 STARTS. ATTEMPT NUMBER  1, TIME INCREMENT  7.400E-02

  NUMBER OF EQUATIONS =      1143     NUMBER OF RHS =    1
  NUMBER OF FLOATING PT. OPERATIONS =  2.15E+06

     CHECK POINT   START OF SOLVER    

     CHECK POINT  END OF SOLVER       

       ELAPSED USER TIME (SEC)      =   0.0000    
       ELAPSED SYSTEM TIME (SEC)    =   0.0000    
       ELAPSED TOTAL CPU TIME (SEC) =   0.0000    
       ELAPSED WALLCLOCK TIME (SEC) =          0

               CONVERGENCE CHECKS FOR EQUILIBRIUM ITERATION     1


 AVERAGE FORCE                      2.372E-04   TIME AVG. FORCE       2.372E-04
 LARGEST RESIDUAL FORCE            -2.323E-02   AT NODE          1   DOF  2
   INSTANCE: REFPOINT-0                                                                      
 LARGEST INCREMENT OF DISP.        -0.751       AT NODE        189   DOF  3
   INSTANCE: PART-1-1                                                                        
 LARGEST CORRECTION TO DISP.       -0.751       AT NODE        189   DOF  3
   INSTANCE: PART-1-1                                                                        
          FORCE     EQUILIBRIUM NOT ACHIEVED WITHIN TOLERANCE.

 AVERAGE MOMENT                     2.241E-05   TIME AVG. MOMENT      2.241E-05
 LARGEST RESIDUAL MOMENT            9.092E-04   AT NODE        187   DOF  4
   INSTANCE: PART-1-1                                                                        
 LARGEST INCREMENT OF ROTATION     -2.847E-02   AT NODE        192   DOF  4
   INSTANCE: PART-1-1                                                                        
 LARGEST CORRECTION TO ROTATION    -2.847E-02   AT NODE        192   DOF  4
   INSTANCE: PART-1-1                                                                        
          MOMENT    EQUILIBRIUM NOT ACHIEVED WITHIN TOLERANCE.

  NUMBER OF EQUATIONS =      1143     NUMBER OF RHS =    1
  NUMBER OF FLOATING PT. OPERATIONS =  2.15E+06

     CHECK POINT   START OF SOLVER    

     CHECK POINT  END OF SOLVER       

       ELAPSED USER TIME (SEC)      =   0.0000    
       ELAPSED SYSTEM TIME (SEC)    =   0.0000    
       ELAPSED TOTAL CPU TIME (SEC) =   0.0000    
       ELAPSED WALLCLOCK TIME (SEC) =          0

               CONVERGENCE CHECKS FOR EQUILIBRIUM ITERATION     2


 AVERAGE FORCE                      1.919E-07   TIME AVG. FORCE       1.919E-07
 LARGEST RESIDUAL FORCE             1.442E-05   AT NODE          1   DOF  2
   INSTANCE: REFPOINT-0                                                                      
 LARGEST INCREMENT OF DISP.        -0.752       AT NODE        189   DOF  3
   INSTANCE: PART-1-1                                                                        
 LARGEST CORRECTION TO DISP.       -9.217E-03   AT NODE        189   DOF  2
   INSTANCE: PART-1-1                                                                        
          FORCE     EQUILIBRIUM NOT ACHIEVED WITHIN TOLERANCE.

 AVERAGE MOMENT                     5.333E-07   TIME AVG. MOMENT      5.333E-07
 LARGEST RESIDUAL MOMENT           -2.409E-06   AT NODE        186   DOF  4
   INSTANCE: PART-1-1                                                                        
 LARGEST INCREMENT OF ROTATION     -2.853E-02   AT NODE        189   DOF  4
   INSTANCE: PART-1-1                                                                        
 LARGEST CORRECTION TO ROTATION    -6.486E-05   AT NODE        189   DOF  4
   INSTANCE: PART-1-1                                                                        
          MOMENT    EQUILIBRIUM NOT ACHIEVED WITHIN TOLERANCE.

  NUMBER OF EQUATIONS =      1143     NUMBER OF RHS =    1
  NUMBER OF FLOATING PT. OPERATIONS =  2.15E+06

     CHECK POINT   START OF SOLVER    

     CHECK POINT  END OF SOLVER       

       ELAPSED USER TIME (SEC)      =   0.0000    
       ELAPSED SYSTEM TIME (SEC)    =  1.00000E-02
       ELAPSED TOTAL CPU TIME (SEC) =  1.00000E-02
       ELAPSED WALLCLOCK TIME (SEC) =          0

               CONVERGENCE CHECKS FOR EQUILIBRIUM ITERATION     3


 AVERAGE FORCE                      2.063E-08   TIME AVG. FORCE       1.176E-02
                                                (FROM MOMENT    FIELD)
 LARGEST RESIDUAL FORCE            -2.020E-07   AT NODE          1   DOF  2
   INSTANCE: REFPOINT-0                                                                      
 LARGEST INCREMENT OF DISP.        -0.750       AT NODE        189   DOF  3
   INSTANCE: PART-1-1                                                                        
 LARGEST CORRECTION TO DISP.        1.770E-03   AT NODE        189   DOF  3
   INSTANCE: PART-1-1                                                                        
          THE FORCE     IS ZERO EVERYWHERE BUT THE FORCE     RESIDUAL OR
          THE DISP.    CORRECTION IS NON-ZERO

 AVERAGE MOMENT                     4.978E-07   TIME AVG. MOMENT      4.978E-07
 LARGEST RESIDUAL MOMENT           -3.937E-09   AT NODE        143   DOF  4
   INSTANCE: PART-1-1                                                                        
 LARGEST INCREMENT OF ROTATION     -2.844E-02   AT NODE        192   DOF  4
   INSTANCE: PART-1-1                                                                        
 LARGEST CORRECTION TO ROTATION     9.268E-05   AT NODE        189   DOF  4
   INSTANCE: PART-1-1                                                                        
          MOMENT    EQUILIBRIUM NOT ACHIEVED WITHIN TOLERANCE.

  NUMBER OF EQUATIONS =      1143     NUMBER OF RHS =    1
  NUMBER OF FLOATING PT. OPERATIONS =  2.15E+06

     CHECK POINT   START OF SOLVER    

     CHECK POINT  END OF SOLVER       

       ELAPSED USER TIME (SEC)      =   0.0000    
       ELAPSED SYSTEM TIME (SEC)    =   0.0000    
       ELAPSED TOTAL CPU TIME (SEC) =   0.0000    
       ELAPSED WALLCLOCK TIME (SEC) =          0

               CONVERGENCE CHECKS FOR EQUILIBRIUM ITERATION     4


 AVERAGE FORCE                      1.998E-08   TIME AVG. FORCE       1.176E-02
                                                (FROM MOMENT    FIELD)
 LARGEST RESIDUAL FORCE            -1.175E-08   AT NODE          1   DOF  2
   INSTANCE: REFPOINT-0                                                                      
 LARGEST INCREMENT OF DISP.        -0.751       AT NODE        189   DOF  3
   INSTANCE: PART-1-1                                                                        
 LARGEST CORRECTION TO DISP.       -4.225E-04   AT NODE        189   DOF  3
   INSTANCE: PART-1-1                                                                        
          THERE IS ZERO FORCE     EVERYWHERE

 AVERAGE MOMENT                     4.981E-07   TIME AVG. MOMENT      4.981E-07
 LARGEST RESIDUAL MOMENT           -8.011E-12   AT NODE        186   DOF  4
   INSTANCE: PART-1-1                                                                        
 LARGEST INCREMENT OF ROTATION     -2.846E-02   AT NODE        192   DOF  4
   INSTANCE: PART-1-1                                                                        
 LARGEST CORRECTION TO ROTATION    -2.032E-05   AT NODE        192   DOF  4
   INSTANCE: PART-1-1                                                                        
          THE MOMENT    EQUILIBRIUM EQUATIONS HAVE CONVERGED
          TIME INCREMENT REDUCED TO   7.039E-02 TO MEET NEXT OUTPUT TIME POINT

 ITERATION SUMMARY FOR THE INCREMENT:   4 TOTAL ITERATIONS, OF WHICH
   0 ARE SEVERE DISCONTINUITY ITERATIONS AND  4 ARE EQUILIBRIUM ITERATIONS.

 TIME INCREMENT COMPLETED  7.400E-02,  FRACTION OF STEP COMPLETED  3.700E-02
 STEP TIME COMPLETED       7.400E-02,  TOTAL TIME COMPLETED        7.400E-02


  INCREMENT     2 STARTS. ATTEMPT NUMBER  1, TIME INCREMENT  7.039E-02

  NUMBER OF EQUATIONS =      1143     NUMBER OF RHS =    1
  NUMBER OF FLOATING PT. OPERATIONS =  2.15E+06

     CHECK POINT   START OF SOLVER    

     CHECK POINT  END OF SOLVER       

       ELAPSED USER TIME (SEC)      =   0.0000    
       ELAPSED SYSTEM TIME (SEC)    =   0.0000    
       ELAPSED TOTAL CPU TIME (SEC) =   0.0000    
       ELAPSED WALLCLOCK TIME (SEC) =          0
 

 ***WARNING: THE SYSTEM MATRIX HAS 1 NEGATIVE EIGENVALUES.

     NEGATIVE EIGENVALUES MEAN THAT THE SYSTEM MATRIX IS NOT 
     POSITIVE DEFINITE:
     FOR EXAMPLE, A BIFURCATION (BUCKLING) LOAD MAY HAVE BEEN EXCEEDED.

               CONVERGENCE CHECKS FOR EQUILIBRIUM ITERATION     1


 AVERAGE FORCE                      1.029E-02   TIME AVG. FORCE       1.029E-02
 LARGEST RESIDUAL FORCE             0.595       AT NODE        105   DOF  1
   INSTANCE: PART-1-1                                                                        
 LARGEST INCREMENT OF DISP.          2.23       AT NODE        189   DOF  3
   INSTANCE: PART-1-1                                                                        
 LARGEST CORRECTION TO DISP.         2.95       AT NODE        189   DOF  3
   INSTANCE: PART-1-1                                                                        
          FORCE     EQUILIBRIUM NOT ACHIEVED WITHIN TOLERANCE.

 AVERAGE MOMENT                     4.041E-03   TIME AVG. MOMENT      2.021E-03
 LARGEST RESIDUAL MOMENT            0.104       AT NODE        102   DOF  5
   INSTANCE: PART-1-1                                                                        
 LARGEST INCREMENT OF ROTATION     -0.185       AT NODE        105   DOF  5
   INSTANCE: PART-1-1                                                                        
 LARGEST CORRECTION TO ROTATION    -0.185       AT NODE        105   DOF  5
   INSTANCE: PART-1-1                                                                        
          MOMENT    EQUILIBRIUM NOT ACHIEVED WITHIN TOLERANCE.

  NUMBER OF EQUATIONS =      1143     NUMBER OF RHS =    1
  NUMBER OF FLOATING PT. OPERATIONS =  2.15E+06

     CHECK POINT   START OF SOLVER    

     CHECK POINT  END OF SOLVER       

       ELAPSED USER TIME (SEC)      =  1.00000E-02
       ELAPSED SYSTEM TIME (SEC)    =   0.0000    
       ELAPSED TOTAL CPU TIME (SEC) =  1.00000E-02
       ELAPSED WALLCLOCK TIME (SEC) =          0

               CONVERGENCE CHECKS FOR EQUILIBRIUM ITERATION     2


 AVERAGE FORCE                      4.332E-04   TIME AVG. FORCE       4.332E-04
 LARGEST RESIDUAL FORCE            -1.977E-02   AT NODE        109   DOF  1
   INSTANCE: PART-1-1                                                                        
 LARGEST INCREMENT OF DISP.          2.29       AT NODE        189   DOF  3
   INSTANCE: PART-1-1                                                                        
 LARGEST CORRECTION TO DISP.       -0.314       AT NODE        189   DOF  1
   INSTANCE: PART-1-1                                                                        
          FORCE     EQUILIBRIUM NOT ACHIEVED WITHIN TOLERANCE.

 AVERAGE MOMENT                     1.363E-04   TIME AVG. MOMENT      6.839E-05
 LARGEST RESIDUAL MOMENT            2.893E-03   AT NODE        185   DOF  4
   INSTANCE: PART-1-1                                                                        
 LARGEST INCREMENT OF ROTATION     -0.186       AT NODE        109   DOF  5
   INSTANCE: PART-1-1                                                                        
 LARGEST CORRECTION TO ROTATION     1.183E-02   AT NODE        189   DOF  4
   INSTANCE: PART-1-1                                                                        
          MOMENT    EQUILIBRIUM NOT ACHIEVED WITHIN TOLERANCE.

  NUMBER OF EQUATIONS =      1143     NUMBER OF RHS =    1
  NUMBER OF FLOATING PT. OPERATIONS =  2.15E+06

     CHECK POINT   START OF SOLVER    

     CHECK POINT  END OF SOLVER       

       ELAPSED USER TIME (SEC)      =  1.00000E-02
       ELAPSED SYSTEM TIME (SEC)    =   0.0000    
       ELAPSED TOTAL CPU TIME (SEC) =  1.00000E-02
       ELAPSED WALLCLOCK TIME (SEC) =          0
 

 ***WARNING: THE SYSTEM MATRIX HAS 10 NEGATIVE EIGENVALUES.
             EXPLANATIONS ARE SUGGESTED AFTER THE FIRST OCCURRENCE OF THIS MESSAGE.

               CONVERGENCE CHECKS FOR EQUILIBRIUM ITERATION     3


 AVERAGE FORCE                      6.676E-04   TIME AVG. FORCE       6.676E-04
 LARGEST RESIDUAL FORCE             3.535E-02   AT NODE         45   DOF  3
   INSTANCE: PART-1-1                                                                        
 LARGEST INCREMENT OF DISP.          2.74       AT NODE        189   DOF  3
   INSTANCE: PART-1-1                                                                        
 LARGEST CORRECTION TO DISP.        0.549       AT NODE        108   DOF  3
   INSTANCE: PART-1-1                                                                        
          FORCE     EQUILIBRIUM NOT ACHIEVED WITHIN TOLERANCE.

 AVERAGE MOMENT                     5.413E-04   TIME AVG. MOMENT      2.709E-04
 LARGEST RESIDUAL MOMENT           -2.485E-02   AT NODE         46   DOF  5
   INSTANCE: PART-1-1                                                                        
 LARGEST INCREMENT OF ROTATION     -0.190       AT NODE        112   DOF  5
   INSTANCE: PART-1-1                                                                        
 LARGEST CORRECTION TO ROTATION     5.786E-02   AT NODE         37   DOF  4
   INSTANCE: PART-1-1                                                                        
          MOMENT    EQUILIBRIUM NOT ACHIEVED WITHIN TOLERANCE.

  NUMBER OF EQUATIONS =      1143     NUMBER OF RHS =    1
  NUMBER OF FLOATING PT. OPERATIONS =  2.15E+06

     CHECK POINT   START OF SOLVER    

     CHECK POINT  END OF SOLVER       

       ELAPSED USER TIME (SEC)      =  1.00000E-02
       ELAPSED SYSTEM TIME (SEC)    =   0.0000    
       ELAPSED TOTAL CPU TIME (SEC) =  1.00000E-02
       ELAPSED WALLCLOCK TIME (SEC) =          0

               CONVERGENCE CHECKS FOR EQUILIBRIUM ITERATION     4


 AVERAGE FORCE                      1.231E-04   TIME AVG. FORCE       1.231E-04
 LARGEST RESIDUAL FORCE             3.584E-03   AT NODE         45   DOF  1
   INSTANCE: PART-1-1                                                                        
 LARGEST INCREMENT OF DISP.          2.69       AT NODE        189   DOF  3
   INSTANCE: PART-1-1                                                                        
 LARGEST CORRECTION TO DISP.       -5.110E-02   AT NODE        189   DOF  1
   INSTANCE: PART-1-1                                                                        
          FORCE     EQUILIBRIUM NOT ACHIEVED WITHIN TOLERANCE.

 AVERAGE MOMENT                     1.104E-04   TIME AVG. MOMENT      5.544E-05
 LARGEST RESIDUAL MOMENT            2.045E-03   AT NODE         54   DOF  4
   INSTANCE: PART-1-1                                                                        
 LARGEST INCREMENT OF ROTATION     -0.186       AT NODE        105   DOF  5
   INSTANCE: PART-1-1                                                                        
 LARGEST CORRECTION TO ROTATION    -1.317E-02   AT NODE         41   DOF  5
   INSTANCE: PART-1-1                                                                        
          MOMENT    EQUILIBRIUM NOT ACHIEVED WITHIN TOLERANCE.

  NUMBER OF EQUATIONS =      1143     NUMBER OF RHS =    1
  NUMBER OF FLOATING PT. OPERATIONS =  2.15E+06

     CHECK POINT   START OF SOLVER    

     CHECK POINT  END OF SOLVER       

       ELAPSED USER TIME (SEC)      =  1.00000E-02
       ELAPSED SYSTEM TIME (SEC)    =   0.0000    
       ELAPSED TOTAL CPU TIME (SEC) =  1.00000E-02
       ELAPSED WALLCLOCK TIME (SEC) =          0

               CONVERGENCE CHECKS FOR EQUILIBRIUM ITERATION     5


 AVERAGE FORCE                      4.422E-04   TIME AVG. FORCE       4.422E-04
 LARGEST RESIDUAL FORCE            -1.449E-02   AT NODE          1   DOF  2
   INSTANCE: REFPOINT-0                                                                      
 LARGEST INCREMENT OF DISP.          1.93       AT NODE        189   DOF  3
   INSTANCE: PART-1-1                                                                        
 LARGEST CORRECTION TO DISP.       -0.759       AT NODE        189   DOF  3
   INSTANCE: PART-1-1                                                                        
          FORCE     EQUILIBRIUM NOT ACHIEVED WITHIN TOLERANCE.

 AVERAGE MOMENT                     3.064E-04   TIME AVG. MOMENT      1.534E-04
 LARGEST RESIDUAL MOMENT           -6.506E-03   AT NODE         79   DOF  5
   INSTANCE: PART-1-1                                                                        
 LARGEST INCREMENT OF ROTATION     -0.172       AT NODE        109   DOF  5
   INSTANCE: PART-1-1                                                                        
 LARGEST CORRECTION TO ROTATION    -4.775E-02   AT NODE         41   DOF  4
   INSTANCE: PART-1-1                                                                        
          MOMENT    EQUILIBRIUM NOT ACHIEVED WITHIN TOLERANCE.

  NUMBER OF EQUATIONS =      1143     NUMBER OF RHS =    1
  NUMBER OF FLOATING PT. OPERATIONS =  2.15E+06

     CHECK POINT   START OF SOLVER    

     CHECK POINT  END OF SOLVER       

       ELAPSED USER TIME (SEC)      =   0.0000    
       ELAPSED SYSTEM TIME (SEC)    =   0.0000    
       ELAPSED TOTAL CPU TIME (SEC) =   0.0000    
       ELAPSED WALLCLOCK TIME (SEC) =          0

               CONVERGENCE CHECKS FOR EQUILIBRIUM ITERATION     6


 AVERAGE FORCE                      8.244E-05   TIME AVG. FORCE       8.244E-05
 LARGEST RESIDUAL FORCE            -4.781E-03   AT NODE        148   DOF  1
   INSTANCE: PART-1-1                                                                        
 LARGEST INCREMENT OF DISP.          1.91       AT NODE        189   DOF  3
   INSTANCE: PART-1-1                                                                        
 LARGEST CORRECTION TO DISP.       -4.360E-02   AT NODE        156   DOF  3
   INSTANCE: PART-1-1                                                                        
          FORCE     EQUILIBRIUM NOT ACHIEVED WITHIN TOLERANCE.

 AVERAGE MOMENT                     3.635E-05   TIME AVG. MOMENT      1.842E-05
 LARGEST RESIDUAL MOMENT            3.432E-04   AT NODE        138   DOF  4
   INSTANCE: PART-1-1                                                                        
 LARGEST INCREMENT OF ROTATION     -0.169       AT NODE        105   DOF  5
   INSTANCE: PART-1-1                                                                        
 LARGEST CORRECTION TO ROTATION     1.682E-02   AT NODE        148   DOF  5
   INSTANCE: PART-1-1                                                                        
          MOMENT    EQUILIBRIUM NOT ACHIEVED WITHIN TOLERANCE.

  NUMBER OF EQUATIONS =      1143     NUMBER OF RHS =    1
  NUMBER OF FLOATING PT. OPERATIONS =  2.15E+06

     CHECK POINT   START OF SOLVER    

     CHECK POINT  END OF SOLVER       

       ELAPSED USER TIME (SEC)      =   0.0000    
       ELAPSED SYSTEM TIME (SEC)    =   0.0000    
       ELAPSED TOTAL CPU TIME (SEC) =   0.0000    
       ELAPSED WALLCLOCK TIME (SEC) =          0

               CONVERGENCE CHECKS FOR EQUILIBRIUM ITERATION     7


 AVERAGE FORCE                      8.314E-04   TIME AVG. FORCE       8.314E-04
 LARGEST RESIDUAL FORCE             2.370E-02   AT NODE        101   DOF  3
   INSTANCE: PART-1-1                                                                        
 LARGEST INCREMENT OF DISP.         0.793       AT NODE        189   DOF  3
   INSTANCE: PART-1-1                                                                        
 LARGEST CORRECTION TO DISP.        -1.11       AT NODE        189   DOF  3
   INSTANCE: PART-1-1                                                                        
          FORCE     EQUILIBRIUM NOT ACHIEVED WITHIN TOLERANCE.

 AVERAGE MOMENT                     5.934E-04   TIME AVG. MOMENT      2.970E-04
 LARGEST RESIDUAL MOMENT           -1.683E-02   AT NODE        102   DOF  5
   INSTANCE: PART-1-1                                                                        
 LARGEST INCREMENT OF ROTATION     -0.153       AT NODE        117   DOF  5
   INSTANCE: PART-1-1                                                                        
 LARGEST CORRECTION TO ROTATION    -4.550E-02   AT NODE         76   DOF  4
   INSTANCE: PART-1-1                                                                        
          MOMENT    EQUILIBRIUM NOT ACHIEVED WITHIN TOLERANCE.
 

 ***NOTE: THE SOLUTION APPEARS TO BE DIVERGING. CONVERGENCE IS JUDGED UNLIKELY.


  INCREMENT     2 STARTS. ATTEMPT NUMBER  2, TIME INCREMENT  1.760E-02

  NUMBER OF EQUATIONS =      1143     NUMBER OF RHS =    1
  NUMBER OF FLOATING PT. OPERATIONS =  2.15E+06

     CHECK POINT   START OF SOLVER    

     CHECK POINT  END OF SOLVER       

       ELAPSED USER TIME (SEC)      =  1.00000E-02
       ELAPSED SYSTEM TIME (SEC)    =   0.0000    
       ELAPSED TOTAL CPU TIME (SEC) =  1.00000E-02
       ELAPSED WALLCLOCK TIME (SEC) =          0

               CONVERGENCE CHECKS FOR EQUILIBRIUM ITERATION     1


 AVERAGE FORCE                      1.964E-06   TIME AVG. FORCE       1.964E-06
 LARGEST RESIDUAL FORCE            -1.455E-04   AT NODE          1   DOF  2
   INSTANCE: REFPOINT-0                                                                      
 LARGEST INCREMENT OF DISP.        -0.230       AT NODE        189   DOF  3
   INSTANCE: PART-1-1                                                                        
 LARGEST CORRECTION TO DISP.       -5.164E-02   AT NODE        189   DOF  3
   INSTANCE: PART-1-1                                                                        
          FORCE     EQUILIBRIUM NOT ACHIEVED WITHIN TOLERANCE.

 AVERAGE MOMENT                     2.524E-06   TIME AVG. MOMENT      1.511E-06
 LARGEST RESIDUAL MOMENT           -3.208E-05   AT NODE        187   DOF  4
   INSTANCE: PART-1-1                                                                        
 LARGEST INCREMENT OF ROTATION     -9.080E-03   AT NODE        189   DOF  4
   INSTANCE: PART-1-1                                                                        
 LARGEST CORRECTION TO ROTATION    -2.313E-03   AT NODE        189   DOF  4
   INSTANCE: PART-1-1                                                                        
          MOMENT    EQUILIBRIUM NOT ACHIEVED WITHIN TOLERANCE.

  NUMBER OF EQUATIONS =      1143     NUMBER OF RHS =    1
  NUMBER OF FLOATING PT. OPERATIONS =  2.15E+06

     CHECK POINT   START OF SOLVER    

     CHECK POINT  END OF SOLVER       

       ELAPSED USER TIME (SEC)      =  1.00000E-02
       ELAPSED SYSTEM TIME (SEC)    =   0.0000    
       ELAPSED TOTAL CPU TIME (SEC) =  1.00000E-02
       ELAPSED WALLCLOCK TIME (SEC) =          1

               CONVERGENCE CHECKS FOR EQUILIBRIUM ITERATION     2


 AVERAGE FORCE                      4.723E-08   TIME AVG. FORCE       1.000E-02
 LARGEST RESIDUAL FORCE            -4.343E-06   AT NODE          1   DOF  2
   INSTANCE: REFPOINT-0                                                                      
 LARGEST INCREMENT OF DISP.        -0.223       AT NODE        189   DOF  3
   INSTANCE: PART-1-1                                                                        
 LARGEST CORRECTION TO DISP.        6.942E-03   AT NODE        189   DOF  3
   INSTANCE: PART-1-1                                                                        
          THE FORCE     IS ZERO EVERYWHERE BUT THE FORCE     RESIDUAL OR
          THE DISP.    CORRECTION IS NON-ZERO

 AVERAGE MOMENT                     1.314E-06   TIME AVG. MOMENT      9.062E-07
 LARGEST RESIDUAL MOMENT            1.189E-07   AT NODE        186   DOF  4
   INSTANCE: PART-1-1                                                                        
 LARGEST INCREMENT OF ROTATION     -8.687E-03   AT NODE        189   DOF  4
   INSTANCE: PART-1-1                                                                        
 LARGEST CORRECTION TO ROTATION     3.930E-04   AT NODE        189   DOF  4
   INSTANCE: PART-1-1                                                                        
          MOMENT    EQUILIBRIUM NOT ACHIEVED WITHIN TOLERANCE.

  NUMBER OF EQUATIONS =      1143     NUMBER OF RHS =    1
  NUMBER OF FLOATING PT. OPERATIONS =  2.15E+06

     CHECK POINT   START OF SOLVER    

     CHECK POINT  END OF SOLVER       

       ELAPSED USER TIME (SEC)      =   0.0000    
       ELAPSED SYSTEM TIME (SEC)    =   0.0000    
       ELAPSED TOTAL CPU TIME (SEC) =   0.0000    
       ELAPSED WALLCLOCK TIME (SEC) =          0

               CONVERGENCE CHECKS FOR EQUILIBRIUM ITERATION     3


 AVERAGE FORCE                      4.720E-08   TIME AVG. FORCE       1.000E-02
 LARGEST RESIDUAL FORCE            -4.890E-06   AT NODE          1   DOF  2
   INSTANCE: REFPOINT-0                                                                      
 LARGEST INCREMENT OF DISP.        -0.217       AT NODE        189   DOF  3
   INSTANCE: PART-1-1                                                                        
 LARGEST CORRECTION TO DISP.        6.495E-03   AT NODE          1   DOF  3
   INSTANCE: REFPOINT-0                                                                      
          THE FORCE     IS ZERO EVERYWHERE BUT THE FORCE     RESIDUAL OR
          THE DISP.    CORRECTION IS NON-ZERO

 AVERAGE MOMENT                     1.298E-06   TIME AVG. MOMENT      8.983E-07
 LARGEST RESIDUAL MOMENT            9.041E-10   AT NODE        186   DOF  4
   INSTANCE: PART-1-1                                                                        
 LARGEST INCREMENT OF ROTATION     -8.273E-03   AT NODE        191   DOF  4
   INSTANCE: PART-1-1                                                                        
 LARGEST CORRECTION TO ROTATION     4.145E-04   AT NODE        189   DOF  4
   INSTANCE: PART-1-1                                                                        
 ESTIMATE OF ROTATION CORRECTION    3.150E-06
 MOMENT    EQUILIB. ACCEPTED BASED ON SMALL RESIDUAL AND ESTIMATED CORRECTION

  NUMBER OF EQUATIONS =      1143     NUMBER OF RHS =    1
  NUMBER OF FLOATING PT. OPERATIONS =  2.15E+06

     CHECK POINT   START OF SOLVER    

     CHECK POINT  END OF SOLVER       

       ELAPSED USER TIME (SEC)      =   0.0000    
       ELAPSED SYSTEM TIME (SEC)    =   0.0000    
       ELAPSED TOTAL CPU TIME (SEC) =   0.0000    
       ELAPSED WALLCLOCK TIME (SEC) =          0

               CONVERGENCE CHECKS FOR EQUILIBRIUM ITERATION     4


 AVERAGE FORCE                      2.639E-08   TIME AVG. FORCE       1.000E-02
 LARGEST RESIDUAL FORCE            -3.487E-09   AT NODE          1   DOF  2
   INSTANCE: REFPOINT-0                                                                      
 LARGEST INCREMENT OF DISP.        -0.217       AT NODE        189   DOF  3
   INSTANCE: PART-1-1                                                                        
 LARGEST CORRECTION TO DISP.        1.645E-04   AT NODE        189   DOF  3
   INSTANCE: PART-1-1                                                                        
          THERE IS ZERO FORCE     EVERYWHERE
 

 ***WARNING: THERE IS ZERO FORCE EVERYWHERE IN THE MODEL BASED ON THE DEFAULT 
             CRITERION. PLEASE CHECK THE VALUE OF THE AVERAGE FORCE DURING THE 
             CURRENT ITERATION TO VERIFY THAT THE FORCE IS SMALL ENOUGH TO BE 
             TREATED AS ZERO. IF NOT, PLEASE USE THE SOLUTION CONTROLS TO RESET 
             THE CRITERION FOR ZERO FORCE.

 AVERAGE MOMENT                     1.298E-06   TIME AVG. MOMENT      8.983E-07
 LARGEST RESIDUAL MOMENT            1.111E-10   AT NODE        186   DOF  4
   INSTANCE: PART-1-1                                                                        
 LARGEST INCREMENT OF ROTATION     -8.262E-03   AT NODE        191   DOF  4
   INSTANCE: PART-1-1                                                                        
 LARGEST CORRECTION TO ROTATION     1.105E-05   AT NODE        189   DOF  4
   INSTANCE: PART-1-1                                                                        
          THE MOMENT    EQUILIBRIUM EQUATIONS HAVE CONVERGED
          TIME INCREMENT MAY NOW INCREASE TO    2.640E-02

 ITERATION SUMMARY FOR THE INCREMENT:   4 TOTAL ITERATIONS, OF WHICH
   0 ARE SEVERE DISCONTINUITY ITERATIONS AND  4 ARE EQUILIBRIUM ITERATIONS.

 TIME INCREMENT COMPLETED  1.760E-02,  FRACTION OF STEP COMPLETED  4.580E-02
 STEP TIME COMPLETED       9.160E-02,  TOTAL TIME COMPLETED        9.160E-02


  INCREMENT     3 STARTS. ATTEMPT NUMBER  1, TIME INCREMENT  2.640E-02

  NUMBER OF EQUATIONS =      1143     NUMBER OF RHS =    1
  NUMBER OF FLOATING PT. OPERATIONS =  2.15E+06

     CHECK POINT   START OF SOLVER    

     CHECK POINT  END OF SOLVER       

       ELAPSED USER TIME (SEC)      =   0.0000    
       ELAPSED SYSTEM TIME (SEC)    =  1.00000E-02
       ELAPSED TOTAL CPU TIME (SEC) =  1.00000E-02
       ELAPSED WALLCLOCK TIME (SEC) =          0

               CONVERGENCE CHECKS FOR EQUILIBRIUM ITERATION     1


 AVERAGE FORCE                      2.293E-06   TIME AVG. FORCE       2.293E-06
 LARGEST RESIDUAL FORCE            -1.664E-04   AT NODE          1   DOF  2
   INSTANCE: REFPOINT-0                                                                      
 LARGEST INCREMENT OF DISP.        -0.381       AT NODE        189   DOF  3
   INSTANCE: PART-1-1                                                                        
 LARGEST CORRECTION TO DISP.       -5.618E-02   AT NODE        189   DOF  3
   INSTANCE: PART-1-1                                                                        
          FORCE     EQUILIBRIUM NOT ACHIEVED WITHIN TOLERANCE.

 AVERAGE MOMENT                     3.191E-06   TIME AVG. MOMENT      1.662E-06
 LARGEST RESIDUAL MOMENT           -3.698E-05   AT NODE        187   DOF  4
   INSTANCE: PART-1-1                                                                        
 LARGEST INCREMENT OF ROTATION     -1.488E-02   AT NODE        189   DOF  4
   INSTANCE: PART-1-1                                                                        
 LARGEST CORRECTION TO ROTATION    -2.486E-03   AT NODE        189   DOF  4
   INSTANCE: PART-1-1                                                                        
          MOMENT    EQUILIBRIUM NOT ACHIEVED WITHIN TOLERANCE.

  NUMBER OF EQUATIONS =      1143     NUMBER OF RHS =    1
  NUMBER OF FLOATING PT. OPERATIONS =  2.15E+06

     CHECK POINT   START OF SOLVER    

     CHECK POINT  END OF SOLVER       

       ELAPSED USER TIME (SEC)      =  1.00000E-02
       ELAPSED SYSTEM TIME (SEC)    =   0.0000    
       ELAPSED TOTAL CPU TIME (SEC) =  1.00000E-02
       ELAPSED WALLCLOCK TIME (SEC) =          0

               CONVERGENCE CHECKS FOR EQUILIBRIUM ITERATION     2


 AVERAGE FORCE                      5.593E-08   TIME AVG. FORCE       1.000E-02
 LARGEST RESIDUAL FORCE            -3.766E-06   AT NODE          1   DOF  2
   INSTANCE: REFPOINT-0                                                                      
 LARGEST INCREMENT OF DISP.        -0.374       AT NODE        189   DOF  3
   INSTANCE: PART-1-1                                                                        
 LARGEST CORRECTION TO DISP.        7.228E-03   AT NODE        189   DOF  3
   INSTANCE: PART-1-1                                                                        
          THE FORCE     IS ZERO EVERYWHERE BUT THE FORCE     RESIDUAL OR
          THE DISP.    CORRECTION IS NON-ZERO

 AVERAGE MOMENT                     1.809E-06   TIME AVG. MOMENT      1.202E-06
 LARGEST RESIDUAL MOMENT            1.291E-07   AT NODE        186   DOF  4
   INSTANCE: PART-1-1                                                                        
 LARGEST INCREMENT OF ROTATION     -1.451E-02   AT NODE        189   DOF  4
   INSTANCE: PART-1-1                                                                        
 LARGEST CORRECTION TO ROTATION     3.660E-04   AT NODE        189   DOF  4
   INSTANCE: PART-1-1                                                                        
          MOMENT    EQUILIBRIUM NOT ACHIEVED WITHIN TOLERANCE.

  NUMBER OF EQUATIONS =      1143     NUMBER OF RHS =    1
  NUMBER OF FLOATING PT. OPERATIONS =  2.15E+06

     CHECK POINT   START OF SOLVER    

     CHECK POINT  END OF SOLVER       

       ELAPSED USER TIME (SEC)      =  1.00000E-02
       ELAPSED SYSTEM TIME (SEC)    =   0.0000    
       ELAPSED TOTAL CPU TIME (SEC) =  1.00000E-02
       ELAPSED WALLCLOCK TIME (SEC) =          0

               CONVERGENCE CHECKS FOR EQUILIBRIUM ITERATION     3


 AVERAGE FORCE                      9.291E-08   TIME AVG. FORCE       1.000E-02
 LARGEST RESIDUAL FORCE            -1.091E-05   AT NODE          1   DOF  2
   INSTANCE: REFPOINT-0                                                                      
 LARGEST INCREMENT OF DISP.        -0.363       AT NODE        189   DOF  3
   INSTANCE: PART-1-1                                                                        
 LARGEST CORRECTION TO DISP.        1.123E-02   AT NODE        189   DOF  3
   INSTANCE: PART-1-1                                                                        
          THE FORCE     IS ZERO EVERYWHERE BUT THE FORCE     RESIDUAL OR
          THE DISP.    CORRECTION IS NON-ZERO

 AVERAGE MOMENT                     1.782E-06   TIME AVG. MOMENT      1.193E-06
 LARGEST RESIDUAL MOMENT           -5.303E-09   AT NODE        175   DOF  4
   INSTANCE: PART-1-1                                                                        
 LARGEST INCREMENT OF ROTATION     -1.389E-02   AT NODE        190   DOF  4
   INSTANCE: PART-1-1                                                                        
 LARGEST CORRECTION TO ROTATION     6.189E-04   AT NODE        189   DOF  4
   INSTANCE: PART-1-1                                                                        
 ESTIMATE OF ROTATION CORRECTION   -2.542E-05
 MOMENT    EQUILIB. ACCEPTED BASED ON SMALL RESIDUAL AND ESTIMATED CORRECTION

  NUMBER OF EQUATIONS =      1143     NUMBER OF RHS =    1
  NUMBER OF FLOATING PT. OPERATIONS =  2.15E+06

     CHECK POINT   START OF SOLVER    

     CHECK POINT  END OF SOLVER       

       ELAPSED USER TIME (SEC)      =  1.00000E-02
       ELAPSED SYSTEM TIME (SEC)    =   0.0000    
       ELAPSED TOTAL CPU TIME (SEC) =  1.00000E-02
       ELAPSED WALLCLOCK TIME (SEC) =          0

               CONVERGENCE CHECKS FOR EQUILIBRIUM ITERATION     4


 AVERAGE FORCE                      3.726E-08   TIME AVG. FORCE       1.000E-02
 LARGEST RESIDUAL FORCE            -1.073E-08   AT NODE          1   DOF  2
   INSTANCE: REFPOINT-0                                                                      
 LARGEST INCREMENT OF DISP.        -0.362       AT NODE        189   DOF  3
   INSTANCE: PART-1-1                                                                        
 LARGEST CORRECTION TO DISP.        3.410E-04   AT NODE          1   DOF  3
   INSTANCE: REFPOINT-0                                                                      
          THERE IS ZERO FORCE     EVERYWHERE
 

 ***WARNING: THERE IS ZERO FORCE EVERYWHERE IN THE MODEL BASED ON THE DEFAULT 
             CRITERION. PLEASE CHECK THE VALUE OF THE AVERAGE FORCE DURING THE 
             CURRENT ITERATION TO VERIFY THAT THE FORCE IS SMALL ENOUGH TO BE 
             TREATED AS ZERO. IF NOT, PLEASE USE THE SOLUTION CONTROLS TO RESET 
             THE CRITERION FOR ZERO FORCE.

 AVERAGE MOMENT                     1.783E-06   TIME AVG. MOMENT      1.193E-06
 LARGEST RESIDUAL MOMENT            4.349E-10   AT NODE        186   DOF  4
   INSTANCE: PART-1-1                                                                        
 LARGEST INCREMENT OF ROTATION     -1.387E-02   AT NODE        191   DOF  4
   INSTANCE: PART-1-1                                                                        
 LARGEST CORRECTION TO ROTATION     1.936E-05   AT NODE        189   DOF  4
   INSTANCE: PART-1-1                                                                        
          THE MOMENT    EQUILIBRIUM EQUATIONS HAVE CONVERGED
          TIME INCREMENT MAY NOW INCREASE TO    3.959E-02
          TIME INCREMENT REDUCED TO   2.640E-02 TO MEET NEXT OUTPUT TIME POINT

 ITERATION SUMMARY FOR THE INCREMENT:   4 TOTAL ITERATIONS, OF WHICH
   0 ARE SEVERE DISCONTINUITY ITERATIONS AND  4 ARE EQUILIBRIUM ITERATIONS.

 TIME INCREMENT COMPLETED  2.640E-02,  FRACTION OF STEP COMPLETED  5.900E-02
 STEP TIME COMPLETED       0.118    ,  TOTAL TIME COMPLETED        0.118    


  INCREMENT     4 STARTS. ATTEMPT NUMBER  1, TIME INCREMENT  2.640E-02

  NUMBER OF EQUATIONS =      1143     NUMBER OF RHS =    1
  NUMBER OF FLOATING PT. OPERATIONS =  2.15E+06

     CHECK POINT   START OF SOLVER    

     CHECK POINT  END OF SOLVER       

       ELAPSED USER TIME (SEC)      =  1.00000E-02
       ELAPSED SYSTEM TIME (SEC)    =   0.0000    
       ELAPSED TOTAL CPU TIME (SEC) =  1.00000E-02
       ELAPSED WALLCLOCK TIME (SEC) =          0

               CONVERGENCE CHECKS FOR EQUILIBRIUM ITERATION     1


 AVERAGE FORCE                      2.483E-06   TIME AVG. FORCE       2.483E-06
 LARGEST RESIDUAL FORCE             2.517E-04   AT NODE          1   DOF  3
   INSTANCE: REFPOINT-0                                                                      
 LARGEST INCREMENT OF DISP.        -0.410       AT NODE        189   DOF  3
   INSTANCE: PART-1-1                                                                        
 LARGEST CORRECTION TO DISP.       -4.784E-02   AT NODE        189   DOF  3
   INSTANCE: PART-1-1                                                                        
          FORCE     EQUILIBRIUM NOT ACHIEVED WITHIN TOLERANCE.

 AVERAGE MOMENT                     4.326E-06   TIME AVG. MOMENT      1.976E-06
 LARGEST RESIDUAL MOMENT           -5.930E-05   AT NODE        187   DOF  4
   INSTANCE: PART-1-1                                                                        
 LARGEST INCREMENT OF ROTATION     -1.652E-02   AT NODE        189   DOF  4
   INSTANCE: PART-1-1                                                                        
 LARGEST CORRECTION TO ROTATION    -2.644E-03   AT NODE        189   DOF  4
   INSTANCE: PART-1-1                                                                        
          MOMENT    EQUILIBRIUM NOT ACHIEVED WITHIN TOLERANCE.

  NUMBER OF EQUATIONS =      1143     NUMBER OF RHS =    1
  NUMBER OF FLOATING PT. OPERATIONS =  2.15E+06

     CHECK POINT   START OF SOLVER    

     CHECK POINT  END OF SOLVER       

       ELAPSED USER TIME (SEC)      =   0.0000    
       ELAPSED SYSTEM TIME (SEC)    =   0.0000    
       ELAPSED TOTAL CPU TIME (SEC) =   0.0000    
       ELAPSED WALLCLOCK TIME (SEC) =          0

               CONVERGENCE CHECKS FOR EQUILIBRIUM ITERATION     2


 AVERAGE FORCE                      2.452E-07   TIME AVG. FORCE       2.452E-07
 LARGEST RESIDUAL FORCE            -3.023E-05   AT NODE          1   DOF  2
   INSTANCE: REFPOINT-0                                                                      
 LARGEST INCREMENT OF DISP.        -0.389       AT NODE        189   DOF  3
   INSTANCE: PART-1-1                                                                        
 LARGEST CORRECTION TO DISP.        2.141E-02   AT NODE        189   DOF  3
   INSTANCE: PART-1-1                                                                        
          FORCE     EQUILIBRIUM NOT ACHIEVED WITHIN TOLERANCE.

 AVERAGE MOMENT                     2.329E-06   TIME AVG. MOMENT      1.477E-06
 LARGEST RESIDUAL MOMENT            3.707E-07   AT NODE        186   DOF  4
   INSTANCE: PART-1-1                                                                        
 LARGEST INCREMENT OF ROTATION     -1.548E-02   AT NODE        189   DOF  4
   INSTANCE: PART-1-1                                                                        
 LARGEST CORRECTION TO ROTATION     1.034E-03   AT NODE        189   DOF  4
   INSTANCE: PART-1-1                                                                        
          MOMENT    EQUILIBRIUM NOT ACHIEVED WITHIN TOLERANCE.

  NUMBER OF EQUATIONS =      1143     NUMBER OF RHS =    1
  NUMBER OF FLOATING PT. OPERATIONS =  2.15E+06

     CHECK POINT   START OF SOLVER    

     CHECK POINT  END OF SOLVER       

       ELAPSED USER TIME (SEC)      =   0.0000    
       ELAPSED SYSTEM TIME (SEC)    =   0.0000    
       ELAPSED TOTAL CPU TIME (SEC) =   0.0000    
       ELAPSED WALLCLOCK TIME (SEC) =          0

               CONVERGENCE CHECKS FOR EQUILIBRIUM ITERATION     3


 AVERAGE FORCE                      3.448E-07   TIME AVG. FORCE       3.448E-07
 LARGEST RESIDUAL FORCE            -5.699E-05   AT NODE          1   DOF  2
   INSTANCE: REFPOINT-0                                                                      
 LARGEST INCREMENT OF DISP.        -0.364       AT NODE        189   DOF  3
   INSTANCE: PART-1-1                                                                        
 LARGEST CORRECTION TO DISP.        2.476E-02   AT NODE          1   DOF  3
   INSTANCE: REFPOINT-0                                                                      
          FORCE     EQUILIBRIUM NOT ACHIEVED WITHIN TOLERANCE.

 AVERAGE MOMENT                     2.277E-06   TIME AVG. MOMENT      1.464E-06
 LARGEST RESIDUAL MOMENT           -2.946E-08   AT NODE        179   DOF  4
   INSTANCE: PART-1-1                                                                        
 LARGEST INCREMENT OF ROTATION     -1.407E-02   AT NODE        189   DOF  4
   INSTANCE: PART-1-1                                                                        
 LARGEST CORRECTION TO ROTATION     1.416E-03   AT NODE        189   DOF  4
   INSTANCE: PART-1-1                                                                        
          MOMENT    EQUILIBRIUM NOT ACHIEVED WITHIN TOLERANCE.

  NUMBER OF EQUATIONS =      1143     NUMBER OF RHS =    1
  NUMBER OF FLOATING PT. OPERATIONS =  2.15E+06

     CHECK POINT   START OF SOLVER    

     CHECK POINT  END OF SOLVER       

       ELAPSED USER TIME (SEC)      =   0.0000    
       ELAPSED SYSTEM TIME (SEC)    =   0.0000    
       ELAPSED TOTAL CPU TIME (SEC) =   0.0000    
       ELAPSED WALLCLOCK TIME (SEC) =          0

               CONVERGENCE CHECKS FOR EQUILIBRIUM ITERATION     4


 AVERAGE FORCE                      5.558E-08   TIME AVG. FORCE       1.000E-02
 LARGEST RESIDUAL FORCE            -2.096E-06   AT NODE          1   DOF  2
   INSTANCE: REFPOINT-0                                                                      
 LARGEST INCREMENT OF DISP.        -0.359       AT NODE        189   DOF  3
   INSTANCE: PART-1-1                                                                        
 LARGEST CORRECTION TO DISP.        4.851E-03   AT NODE          1   DOF  3
   INSTANCE: REFPOINT-0                                                                      
          THE FORCE     IS ZERO EVERYWHERE BUT THE FORCE     RESIDUAL OR
          THE DISP.    CORRECTION IS NON-ZERO

 AVERAGE MOMENT                     2.267E-06   TIME AVG. MOMENT      1.462E-06
 LARGEST RESIDUAL MOMENT            3.109E-08   AT NODE        186   DOF  4
   INSTANCE: PART-1-1                                                                        
 LARGEST INCREMENT OF ROTATION     -1.380E-02   AT NODE        190   DOF  4
   INSTANCE: PART-1-1                                                                        
 LARGEST CORRECTION TO ROTATION     2.710E-04   AT NODE        189   DOF  4
   INSTANCE: PART-1-1                                                                        
          MOMENT    EQUILIBRIUM NOT ACHIEVED WITHIN TOLERANCE.

  NUMBER OF EQUATIONS =      1143     NUMBER OF RHS =    1
  NUMBER OF FLOATING PT. OPERATIONS =  2.15E+06

     CHECK POINT   START OF SOLVER    

     CHECK POINT  END OF SOLVER       

       ELAPSED USER TIME (SEC)      =   0.0000    
       ELAPSED SYSTEM TIME (SEC)    =   0.0000    
       ELAPSED TOTAL CPU TIME (SEC) =   0.0000    
       ELAPSED WALLCLOCK TIME (SEC) =          0

               CONVERGENCE CHECKS FOR EQUILIBRIUM ITERATION     5


 AVERAGE FORCE                      4.889E-08   TIME AVG. FORCE       1.000E-02
 LARGEST RESIDUAL FORCE            -4.483E-07   AT NODE          1   DOF  2
   INSTANCE: REFPOINT-0                                                                      
 LARGEST INCREMENT OF DISP.        -0.357       AT NODE        189   DOF  3
   INSTANCE: PART-1-1                                                                        
 LARGEST CORRECTION TO DISP.        2.156E-03   AT NODE          1   DOF  3
   INSTANCE: REFPOINT-0                                                                      
          THE FORCE     IS ZERO EVERYWHERE BUT THE FORCE     RESIDUAL OR
          THE DISP.    CORRECTION IS NON-ZERO

 AVERAGE MOMENT                     2.267E-06   TIME AVG. MOMENT      1.462E-06
 LARGEST RESIDUAL MOMENT            4.636E-10   AT NODE        186   DOF  4
   INSTANCE: PART-1-1                                                                        
 LARGEST INCREMENT OF ROTATION     -1.367E-02   AT NODE        189   DOF  4
   INSTANCE: PART-1-1                                                                        
 LARGEST CORRECTION TO ROTATION     1.255E-04   AT NODE        192   DOF  4
   INSTANCE: PART-1-1                                                                        
          THE MOMENT    EQUILIBRIUM EQUATIONS HAVE CONVERGED

  NUMBER OF EQUATIONS =      1143     NUMBER OF RHS =    1
  NUMBER OF FLOATING PT. OPERATIONS =  2.15E+06

     CHECK POINT   START OF SOLVER    

     CHECK POINT  END OF SOLVER       

       ELAPSED USER TIME (SEC)      =   0.0000    
       ELAPSED SYSTEM TIME (SEC)    =   0.0000    
       ELAPSED TOTAL CPU TIME (SEC) =   0.0000    
       ELAPSED WALLCLOCK TIME (SEC) =          0

               CONVERGENCE CHECKS FOR EQUILIBRIUM ITERATION     6


 AVERAGE FORCE                      4.834E-08   TIME AVG. FORCE       1.000E-02
 LARGEST RESIDUAL FORCE            -1.330E-10   AT NODE          1   DOF  2
   INSTANCE: REFPOINT-0                                                                      
 LARGEST INCREMENT OF DISP.        -0.357       AT NODE        189   DOF  3
   INSTANCE: PART-1-1                                                                        
 LARGEST CORRECTION TO DISP.        3.718E-05   AT NODE        189   DOF  3
   INSTANCE: PART-1-1                                                                        
          THERE IS ZERO FORCE     EVERYWHERE
 

 ***WARNING: THERE IS ZERO FORCE EVERYWHERE IN THE MODEL BASED ON THE DEFAULT 
             CRITERION. PLEASE CHECK THE VALUE OF THE AVERAGE FORCE DURING THE 
             CURRENT ITERATION TO VERIFY THAT THE FORCE IS SMALL ENOUGH TO BE 
             TREATED AS ZERO. IF NOT, PLEASE USE THE SOLUTION CONTROLS TO RESET 
             THE CRITERION FOR ZERO FORCE.

 AVERAGE MOMENT                     2.267E-06   TIME AVG. MOMENT      1.462E-06
 LARGEST RESIDUAL MOMENT            2.029E-12   AT NODE        183   DOF  4
   INSTANCE: PART-1-1                                                                        
 LARGEST INCREMENT OF ROTATION     -1.367E-02   AT NODE        189   DOF  4
   INSTANCE: PART-1-1                                                                        
 LARGEST CORRECTION TO ROTATION     2.163E-06   AT NODE        192   DOF  4
   INSTANCE: PART-1-1                                                                        
          THE MOMENT    EQUILIBRIUM EQUATIONS HAVE CONVERGED

 ITERATION SUMMARY FOR THE INCREMENT:   6 TOTAL ITERATIONS, OF WHICH
   0 ARE SEVERE DISCONTINUITY ITERATIONS AND  6 ARE EQUILIBRIUM ITERATIONS.

 TIME INCREMENT COMPLETED  2.640E-02,  FRACTION OF STEP COMPLETED  7.219E-02
 STEP TIME COMPLETED       0.144    ,  TOTAL TIME COMPLETED        0.144    


  INCREMENT     5 STARTS. ATTEMPT NUMBER  1, TIME INCREMENT  3.959E-02

  NUMBER OF EQUATIONS =      1143     NUMBER OF RHS =    1
  NUMBER OF FLOATING PT. OPERATIONS =  2.15E+06

     CHECK POINT   START OF SOLVER    

     CHECK POINT  END OF SOLVER       

       ELAPSED USER TIME (SEC)      =  1.00000E-02
       ELAPSED SYSTEM TIME (SEC)    =   0.0000    
       ELAPSED TOTAL CPU TIME (SEC) =  1.00000E-02
       ELAPSED WALLCLOCK TIME (SEC) =          0

               CONVERGENCE CHECKS FOR EQUILIBRIUM ITERATION     1


 AVERAGE FORCE                      4.872E-05   TIME AVG. FORCE       4.872E-05
 LARGEST RESIDUAL FORCE            -5.692E-03   AT NODE          1   DOF  2
   INSTANCE: REFPOINT-0                                                                      
 LARGEST INCREMENT OF DISP.        -0.815       AT NODE        189   DOF  3
   INSTANCE: PART-1-1                                                                        
 LARGEST CORRECTION TO DISP.       -0.279       AT NODE          1   DOF  3
   INSTANCE: REFPOINT-0                                                                      
          FORCE     EQUILIBRIUM NOT ACHIEVED WITHIN TOLERANCE.

 AVERAGE MOMENT                     2.469E-05   TIME AVG. MOMENT      6.107E-06
 LARGEST RESIDUAL MOMENT           -4.973E-04   AT NODE        171   DOF  4
   INSTANCE: PART-1-1                                                                        
 LARGEST INCREMENT OF ROTATION     -3.502E-02   AT NODE        189   DOF  4
   INSTANCE: PART-1-1                                                                        
 LARGEST CORRECTION TO ROTATION    -1.452E-02   AT NODE        189   DOF  4
   INSTANCE: PART-1-1                                                                        
          MOMENT    EQUILIBRIUM NOT ACHIEVED WITHIN TOLERANCE.

  NUMBER OF EQUATIONS =      1143     NUMBER OF RHS =    1
  NUMBER OF FLOATING PT. OPERATIONS =  2.15E+06

     CHECK POINT   START OF SOLVER    

     CHECK POINT  END OF SOLVER       

       ELAPSED USER TIME (SEC)      =  1.00000E-02
       ELAPSED SYSTEM TIME (SEC)    =   0.0000    
       ELAPSED TOTAL CPU TIME (SEC) =  1.00000E-02
       ELAPSED WALLCLOCK TIME (SEC) =          0

               CONVERGENCE CHECKS FOR EQUILIBRIUM ITERATION     2


 AVERAGE FORCE                      3.670E-07   TIME AVG. FORCE       3.670E-07
 LARGEST RESIDUAL FORCE            -9.107E-06   AT NODE          1   DOF  3
   INSTANCE: REFPOINT-0                                                                      
 LARGEST INCREMENT OF DISP.        -0.808       AT NODE        189   DOF  3
   INSTANCE: PART-1-1                                                                        
 LARGEST CORRECTION TO DISP.        6.690E-03   AT NODE        189   DOF  3
   INSTANCE: PART-1-1                                                                        
          FORCE     EQUILIBRIUM NOT ACHIEVED WITHIN TOLERANCE.

 AVERAGE MOMENT                     3.526E-06   TIME AVG. MOMENT      1.875E-06
 LARGEST RESIDUAL MOMENT            2.680E-06   AT NODE        186   DOF  4
   INSTANCE: PART-1-1                                                                        
 LARGEST INCREMENT OF ROTATION     -3.477E-02   AT NODE        189   DOF  4
   INSTANCE: PART-1-1                                                                        
 LARGEST CORRECTION TO ROTATION    -6.987E-04   AT NODE         68   DOF  5
   INSTANCE: PART-1-1                                                                        
          MOMENT    EQUILIBRIUM NOT ACHIEVED WITHIN TOLERANCE.

  NUMBER OF EQUATIONS =      1143     NUMBER OF RHS =    1
  NUMBER OF FLOATING PT. OPERATIONS =  2.15E+06

     CHECK POINT   START OF SOLVER    

     CHECK POINT  END OF SOLVER       

       ELAPSED USER TIME (SEC)      =   0.0000    
       ELAPSED SYSTEM TIME (SEC)    =   0.0000    
       ELAPSED TOTAL CPU TIME (SEC) =   0.0000    
       ELAPSED WALLCLOCK TIME (SEC) =          0

               CONVERGENCE CHECKS FOR EQUILIBRIUM ITERATION     3


 AVERAGE FORCE                      4.926E-05   TIME AVG. FORCE       4.926E-05
 LARGEST RESIDUAL FORCE            -7.299E-03   AT NODE          1   DOF  2
   INSTANCE: REFPOINT-0                                                                      
 LARGEST INCREMENT OF DISP.        -0.488       AT NODE        189   DOF  3
   INSTANCE: PART-1-1                                                                        
 LARGEST CORRECTION TO DISP.        0.320       AT NODE        189   DOF  3
   INSTANCE: PART-1-1                                                                        
          FORCE     EQUILIBRIUM NOT ACHIEVED WITHIN TOLERANCE.

 AVERAGE MOMENT                     7.542E-06   TIME AVG. MOMENT      2.678E-06
 LARGEST RESIDUAL MOMENT           -1.631E-04   AT NODE        187   DOF  4
   INSTANCE: PART-1-1                                                                        
 LARGEST INCREMENT OF ROTATION     -1.867E-02   AT NODE        189   DOF  4
   INSTANCE: PART-1-1                                                                        
 LARGEST CORRECTION TO ROTATION     1.610E-02   AT NODE        189   DOF  4
   INSTANCE: PART-1-1                                                                        
          MOMENT    EQUILIBRIUM NOT ACHIEVED WITHIN TOLERANCE.

  NUMBER OF EQUATIONS =      1143     NUMBER OF RHS =    1
  NUMBER OF FLOATING PT. OPERATIONS =  2.15E+06

     CHECK POINT   START OF SOLVER    

     CHECK POINT  END OF SOLVER       

       ELAPSED USER TIME (SEC)      =   0.0000    
       ELAPSED SYSTEM TIME (SEC)    =   0.0000    
       ELAPSED TOTAL CPU TIME (SEC) =   0.0000    
       ELAPSED WALLCLOCK TIME (SEC) =          0

               CONVERGENCE CHECKS FOR EQUILIBRIUM ITERATION     4


 AVERAGE FORCE                      6.792E-08   TIME AVG. FORCE       1.000E-02
 LARGEST RESIDUAL FORCE             1.380E-06   AT NODE          1   DOF  2
   INSTANCE: REFPOINT-0                                                                      
 LARGEST INCREMENT OF DISP.        -0.487       AT NODE        189   DOF  3
   INSTANCE: PART-1-1                                                                        
 LARGEST CORRECTION TO DISP.       -1.932E-03   AT NODE        189   DOF  2
   INSTANCE: PART-1-1                                                                        
          THE FORCE     IS ZERO EVERYWHERE BUT THE FORCE     RESIDUAL OR
          THE DISP.    CORRECTION IS NON-ZERO

 AVERAGE MOMENT                     2.916E-06   TIME AVG. MOMENT      1.753E-06
 LARGEST RESIDUAL MOMENT            2.190E-07   AT NODE        186   DOF  4
   INSTANCE: PART-1-1                                                                        
 LARGEST INCREMENT OF ROTATION     -1.864E-02   AT NODE        189   DOF  4
   INSTANCE: PART-1-1                                                                        
 LARGEST CORRECTION TO ROTATION    -1.365E-04   AT NODE        112   DOF  5
   INSTANCE: PART-1-1                                                                        
          MOMENT    EQUILIBRIUM NOT ACHIEVED WITHIN TOLERANCE.

  NUMBER OF EQUATIONS =      1143     NUMBER OF RHS =    1
  NUMBER OF FLOATING PT. OPERATIONS =  2.15E+06

     CHECK POINT   START OF SOLVER    

     CHECK POINT  END OF SOLVER       

       ELAPSED USER TIME (SEC)      =   0.0000    
       ELAPSED SYSTEM TIME (SEC)    =   0.0000    
       ELAPSED TOTAL CPU TIME (SEC) =   0.0000    
       ELAPSED WALLCLOCK TIME (SEC) =          0

               CONVERGENCE CHECKS FOR EQUILIBRIUM ITERATION     5


 AVERAGE FORCE                      6.609E-08   TIME AVG. FORCE       1.000E-02
 LARGEST RESIDUAL FORCE            -6.933E-07   AT NODE          1   DOF  2
   INSTANCE: REFPOINT-0                                                                      
 LARGEST INCREMENT OF DISP.        -0.484       AT NODE        189   DOF  3
   INSTANCE: PART-1-1                                                                        
 LARGEST CORRECTION TO DISP.        3.622E-03   AT NODE          1   DOF  3
   INSTANCE: REFPOINT-0                                                                      
          THE FORCE     IS ZERO EVERYWHERE BUT THE FORCE     RESIDUAL OR
          THE DISP.    CORRECTION IS NON-ZERO

 AVERAGE MOMENT                     2.911E-06   TIME AVG. MOMENT      1.752E-06
 LARGEST RESIDUAL MOMENT           -8.804E-10   AT NODE        159   DOF  4
   INSTANCE: PART-1-1                                                                        
 LARGEST INCREMENT OF ROTATION     -1.848E-02   AT NODE        189   DOF  4
   INSTANCE: PART-1-1                                                                        
 LARGEST CORRECTION TO ROTATION     1.566E-04   AT NODE        181   DOF  4
   INSTANCE: PART-1-1                                                                        
          THE MOMENT    EQUILIBRIUM EQUATIONS HAVE CONVERGED

  NUMBER OF EQUATIONS =      1143     NUMBER OF RHS =    1
  NUMBER OF FLOATING PT. OPERATIONS =  2.15E+06

     CHECK POINT   START OF SOLVER    

     CHECK POINT  END OF SOLVER       

       ELAPSED USER TIME (SEC)      =   0.0000    
       ELAPSED SYSTEM TIME (SEC)    =   0.0000    
       ELAPSED TOTAL CPU TIME (SEC) =   0.0000    
       ELAPSED WALLCLOCK TIME (SEC) =          0

               CONVERGENCE CHECKS FOR EQUILIBRIUM ITERATION     6


 AVERAGE FORCE                      6.380E-08   TIME AVG. FORCE       1.000E-02
 LARGEST RESIDUAL FORCE            -1.489E-10   AT NODE          1   DOF  2
   INSTANCE: REFPOINT-0                                                                      
 LARGEST INCREMENT OF DISP.        -0.484       AT NODE        189   DOF  3
   INSTANCE: PART-1-1                                                                        
 LARGEST CORRECTION TO DISP.       -4.287E-05   AT NODE          1   DOF  3
   INSTANCE: REFPOINT-0                                                                      
          THERE IS ZERO FORCE     EVERYWHERE
 

 ***WARNING: THERE IS ZERO FORCE EVERYWHERE IN THE MODEL BASED ON THE DEFAULT 
             CRITERION. PLEASE CHECK THE VALUE OF THE AVERAGE FORCE DURING THE 
             CURRENT ITERATION TO VERIFY THAT THE FORCE IS SMALL ENOUGH TO BE 
             TREATED AS ZERO. IF NOT, PLEASE USE THE SOLUTION CONTROLS TO RESET 
             THE CRITERION FOR ZERO FORCE.

 AVERAGE MOMENT                     2.911E-06   TIME AVG. MOMENT      1.752E-06
 LARGEST RESIDUAL MOMENT           -3.422E-12   AT NODE        187   DOF  4
   INSTANCE: PART-1-1                                                                        
 LARGEST INCREMENT OF ROTATION     -1.849E-02   AT NODE        189   DOF  4
   INSTANCE: PART-1-1                                                                        
 LARGEST CORRECTION TO ROTATION    -2.301E-06   AT NODE        192   DOF  4
   INSTANCE: PART-1-1                                                                        
          THE MOMENT    EQUILIBRIUM EQUATIONS HAVE CONVERGED
          TIME INCREMENT REDUCED TO   2.752E-02 TO MEET NEXT OUTPUT TIME POINT

 ITERATION SUMMARY FOR THE INCREMENT:   6 TOTAL ITERATIONS, OF WHICH
   0 ARE SEVERE DISCONTINUITY ITERATIONS AND  6 ARE EQUILIBRIUM ITERATIONS.

 TIME INCREMENT COMPLETED  3.959E-02,  FRACTION OF STEP COMPLETED  9.199E-02
 STEP TIME COMPLETED       0.184    ,  TOTAL TIME COMPLETED        0.184    


  INCREMENT     6 STARTS. ATTEMPT NUMBER  1, TIME INCREMENT  2.752E-02

  NUMBER OF EQUATIONS =      1143     NUMBER OF RHS =    1
  NUMBER OF FLOATING PT. OPERATIONS =  2.15E+06

     CHECK POINT   START OF SOLVER    

     CHECK POINT  END OF SOLVER       

       ELAPSED USER TIME (SEC)      =   0.0000    
       ELAPSED SYSTEM TIME (SEC)    =   0.0000    
       ELAPSED TOTAL CPU TIME (SEC) =   0.0000    
       ELAPSED WALLCLOCK TIME (SEC) =          0

               CONVERGENCE CHECKS FOR EQUILIBRIUM ITERATION     1


 AVERAGE FORCE                      2.410E-06   TIME AVG. FORCE       2.410E-06
 LARGEST RESIDUAL FORCE             2.680E-04   AT NODE          1   DOF  3
   INSTANCE: REFPOINT-0                                                                      
 LARGEST INCREMENT OF DISP.        -0.381       AT NODE        189   DOF  3
   INSTANCE: PART-1-1                                                                        
 LARGEST CORRECTION TO DISP.       -4.445E-02   AT NODE        189   DOF  3
   INSTANCE: PART-1-1                                                                        
          FORCE     EQUILIBRIUM NOT ACHIEVED WITHIN TOLERANCE.

 AVERAGE MOMENT                     5.410E-06   TIME AVG. MOMENT      2.361E-06
 LARGEST RESIDUAL MOMENT           -6.201E-05   AT NODE        187   DOF  4
   INSTANCE: PART-1-1                                                                        
 LARGEST INCREMENT OF ROTATION     -1.549E-02   AT NODE        189   DOF  4
   INSTANCE: PART-1-1                                                                        
 LARGEST CORRECTION TO ROTATION    -2.642E-03   AT NODE        189   DOF  4
   INSTANCE: PART-1-1                                                                        
          MOMENT    EQUILIBRIUM NOT ACHIEVED WITHIN TOLERANCE.

  NUMBER OF EQUATIONS =      1143     NUMBER OF RHS =    1
  NUMBER OF FLOATING PT. OPERATIONS =  2.15E+06

     CHECK POINT   START OF SOLVER    

     CHECK POINT  END OF SOLVER       

       ELAPSED USER TIME (SEC)      =  1.00000E-02
       ELAPSED SYSTEM TIME (SEC)    =   0.0000    
       ELAPSED TOTAL CPU TIME (SEC) =  1.00000E-02
       ELAPSED WALLCLOCK TIME (SEC) =          0

               CONVERGENCE CHECKS FOR EQUILIBRIUM ITERATION     2


 AVERAGE FORCE                      3.759E-07   TIME AVG. FORCE       3.759E-07
 LARGEST RESIDUAL FORCE            -4.382E-05   AT NODE          1   DOF  2
   INSTANCE: REFPOINT-0                                                                      
 LARGEST INCREMENT OF DISP.        -0.354       AT NODE        189   DOF  3
   INSTANCE: PART-1-1                                                                        
 LARGEST CORRECTION TO DISP.        2.632E-02   AT NODE          1   DOF  3
   INSTANCE: REFPOINT-0                                                                      
          FORCE     EQUILIBRIUM NOT ACHIEVED WITHIN TOLERANCE.

 AVERAGE MOMENT                     3.409E-06   TIME AVG. MOMENT      2.028E-06
 LARGEST RESIDUAL MOMENT            4.211E-07   AT NODE        186   DOF  4
   INSTANCE: PART-1-1                                                                        
 LARGEST INCREMENT OF ROTATION     -1.425E-02   AT NODE        189   DOF  4
   INSTANCE: PART-1-1                                                                        
 LARGEST CORRECTION TO ROTATION     1.245E-03   AT NODE        189   DOF  4
   INSTANCE: PART-1-1                                                                        
          MOMENT    EQUILIBRIUM NOT ACHIEVED WITHIN TOLERANCE.

  NUMBER OF EQUATIONS =      1143     NUMBER OF RHS =    1
  NUMBER OF FLOATING PT. OPERATIONS =  2.15E+06

     CHECK POINT   START OF SOLVER    

     CHECK POINT  END OF SOLVER       

       ELAPSED USER TIME (SEC)      =  1.00000E-02
       ELAPSED SYSTEM TIME (SEC)    =   0.0000    
       ELAPSED TOTAL CPU TIME (SEC) =  1.00000E-02
       ELAPSED WALLCLOCK TIME (SEC) =          0

               CONVERGENCE CHECKS FOR EQUILIBRIUM ITERATION     3


 AVERAGE FORCE                      4.201E-07   TIME AVG. FORCE       4.201E-07
 LARGEST RESIDUAL FORCE            -6.595E-05   AT NODE          1   DOF  2
   INSTANCE: REFPOINT-0                                                                      
 LARGEST INCREMENT OF DISP.        -0.328       AT NODE        189   DOF  3
   INSTANCE: PART-1-1                                                                        
 LARGEST CORRECTION TO DISP.        2.651E-02   AT NODE          1   DOF  3
   INSTANCE: REFPOINT-0                                                                      
          FORCE     EQUILIBRIUM NOT ACHIEVED WITHIN TOLERANCE.

 AVERAGE MOMENT                     3.359E-06   TIME AVG. MOMENT      2.020E-06
 LARGEST RESIDUAL MOMENT           -1.272E-08   AT NODE        171   DOF  5
   INSTANCE: PART-1-1                                                                        
 LARGEST INCREMENT OF ROTATION     -1.272E-02   AT NODE        190   DOF  4
   INSTANCE: PART-1-1                                                                        
 LARGEST CORRECTION TO ROTATION     1.526E-03   AT NODE        189   DOF  4
   INSTANCE: PART-1-1                                                                        
          MOMENT    EQUILIBRIUM NOT ACHIEVED WITHIN TOLERANCE.

  NUMBER OF EQUATIONS =      1143     NUMBER OF RHS =    1
  NUMBER OF FLOATING PT. OPERATIONS =  2.15E+06

     CHECK POINT   START OF SOLVER    

     CHECK POINT  END OF SOLVER       

       ELAPSED USER TIME (SEC)      =   0.0000    
       ELAPSED SYSTEM TIME (SEC)    =  1.00000E-02
       ELAPSED TOTAL CPU TIME (SEC) =  1.00000E-02
       ELAPSED WALLCLOCK TIME (SEC) =          0

               CONVERGENCE CHECKS FOR EQUILIBRIUM ITERATION     4


 AVERAGE FORCE                      9.495E-08   TIME AVG. FORCE       1.000E-02
 LARGEST RESIDUAL FORCE            -4.917E-06   AT NODE          1   DOF  2
   INSTANCE: REFPOINT-0                                                                      
 LARGEST INCREMENT OF DISP.        -0.320       AT NODE        189   DOF  3
   INSTANCE: PART-1-1                                                                        
 LARGEST CORRECTION TO DISP.        7.551E-03   AT NODE        189   DOF  3
   INSTANCE: PART-1-1                                                                        
          THE FORCE     IS ZERO EVERYWHERE BUT THE FORCE     RESIDUAL OR
          THE DISP.    CORRECTION IS NON-ZERO

 AVERAGE MOMENT                     3.343E-06   TIME AVG. MOMENT      2.017E-06
 LARGEST RESIDUAL MOMENT            5.387E-08   AT NODE        186   DOF  4
   INSTANCE: PART-1-1                                                                        
 LARGEST INCREMENT OF ROTATION     -1.231E-02   AT NODE        190   DOF  4
   INSTANCE: PART-1-1                                                                        
 LARGEST CORRECTION TO ROTATION     4.154E-04   AT NODE        189   DOF  4
   INSTANCE: PART-1-1                                                                        
          MOMENT    EQUILIBRIUM NOT ACHIEVED WITHIN TOLERANCE.

  NUMBER OF EQUATIONS =      1143     NUMBER OF RHS =    1
  NUMBER OF FLOATING PT. OPERATIONS =  2.15E+06

     CHECK POINT   START OF SOLVER    

     CHECK POINT  END OF SOLVER       

       ELAPSED USER TIME (SEC)      =   0.0000    
       ELAPSED SYSTEM TIME (SEC)    =   0.0000    
       ELAPSED TOTAL CPU TIME (SEC) =   0.0000    
       ELAPSED WALLCLOCK TIME (SEC) =          0

               CONVERGENCE CHECKS FOR EQUILIBRIUM ITERATION     5


 AVERAGE FORCE                      7.764E-08   TIME AVG. FORCE       1.000E-02
 LARGEST RESIDUAL FORCE            -1.416E-06   AT NODE          1   DOF  2
   INSTANCE: REFPOINT-0                                                                      
 LARGEST INCREMENT OF DISP.        -0.316       AT NODE        189   DOF  3
   INSTANCE: PART-1-1                                                                        
 LARGEST CORRECTION TO DISP.        3.871E-03   AT NODE          1   DOF  3
   INSTANCE: REFPOINT-0                                                                      
          THE FORCE     IS ZERO EVERYWHERE BUT THE FORCE     RESIDUAL OR
          THE DISP.    CORRECTION IS NON-ZERO

 AVERAGE MOMENT                     3.338E-06   TIME AVG. MOMENT      2.016E-06
 LARGEST RESIDUAL MOMENT            1.828E-09   AT NODE        186   DOF  4
   INSTANCE: PART-1-1                                                                        
 LARGEST INCREMENT OF ROTATION     -1.208E-02   AT NODE        189   DOF  4
   INSTANCE: PART-1-1                                                                        
 LARGEST CORRECTION TO ROTATION     2.233E-04   AT NODE        192   DOF  4
   INSTANCE: PART-1-1                                                                        
 ESTIMATE OF ROTATION CORRECTION   -3.210E-05
 MOMENT    EQUILIB. ACCEPTED BASED ON SMALL RESIDUAL AND ESTIMATED CORRECTION

  NUMBER OF EQUATIONS =      1143     NUMBER OF RHS =    1
  NUMBER OF FLOATING PT. OPERATIONS =  2.15E+06

     CHECK POINT   START OF SOLVER    

     CHECK POINT  END OF SOLVER       

       ELAPSED USER TIME (SEC)      =   0.0000    
       ELAPSED SYSTEM TIME (SEC)    =   0.0000    
       ELAPSED TOTAL CPU TIME (SEC) =   0.0000    
       ELAPSED WALLCLOCK TIME (SEC) =          0

               CONVERGENCE CHECKS FOR EQUILIBRIUM ITERATION     6


 AVERAGE FORCE                      7.422E-08   TIME AVG. FORCE       1.000E-02
 LARGEST RESIDUAL FORCE            -2.476E-09   AT NODE          1   DOF  2
   INSTANCE: REFPOINT-0                                                                      
 LARGEST INCREMENT OF DISP.        -0.316       AT NODE        189   DOF  3
   INSTANCE: PART-1-1                                                                        
 LARGEST CORRECTION TO DISP.        1.622E-04   AT NODE        189   DOF  3
   INSTANCE: PART-1-1                                                                        
          THERE IS ZERO FORCE     EVERYWHERE
 

 ***WARNING: THERE IS ZERO FORCE EVERYWHERE IN THE MODEL BASED ON THE DEFAULT 
             CRITERION. PLEASE CHECK THE VALUE OF THE AVERAGE FORCE DURING THE 
             CURRENT ITERATION TO VERIFY THAT THE FORCE IS SMALL ENOUGH TO BE 
             TREATED AS ZERO. IF NOT, PLEASE USE THE SOLUTION CONTROLS TO RESET 
             THE CRITERION FOR ZERO FORCE.

 AVERAGE MOMENT                     3.340E-06   TIME AVG. MOMENT      2.016E-06
 LARGEST RESIDUAL MOMENT            2.730E-11   AT NODE        187   DOF  4
   INSTANCE: PART-1-1                                                                        
 LARGEST INCREMENT OF ROTATION     -1.207E-02   AT NODE        189   DOF  4
   INSTANCE: PART-1-1                                                                        
 LARGEST CORRECTION TO ROTATION     9.323E-06   AT NODE        192   DOF  4
   INSTANCE: PART-1-1                                                                        
          THE MOMENT    EQUILIBRIUM EQUATIONS HAVE CONVERGED

 ITERATION SUMMARY FOR THE INCREMENT:   6 TOTAL ITERATIONS, OF WHICH
   0 ARE SEVERE DISCONTINUITY ITERATIONS AND  6 ARE EQUILIBRIUM ITERATIONS.

 TIME INCREMENT COMPLETED  2.752E-02,  FRACTION OF STEP COMPLETED  0.106    
 STEP TIME COMPLETED       0.212    ,  TOTAL TIME COMPLETED        0.212    


  INCREMENT     7 STARTS. ATTEMPT NUMBER  1, TIME INCREMENT  3.959E-02

  NUMBER OF EQUATIONS =      1143     NUMBER OF RHS =    1
  NUMBER OF FLOATING PT. OPERATIONS =  2.15E+06

     CHECK POINT   START OF SOLVER    

     CHECK POINT  END OF SOLVER       

       ELAPSED USER TIME (SEC)      =  1.00000E-02
       ELAPSED SYSTEM TIME (SEC)    =   0.0000    
       ELAPSED TOTAL CPU TIME (SEC) =  1.00000E-02
       ELAPSED WALLCLOCK TIME (SEC) =          0

               CONVERGENCE CHECKS FOR EQUILIBRIUM ITERATION     1


 AVERAGE FORCE                      1.338E-05   TIME AVG. FORCE       1.338E-05
 LARGEST RESIDUAL FORCE            -1.262E-03   AT NODE          1   DOF  2
   INSTANCE: REFPOINT-0                                                                      
 LARGEST INCREMENT OF DISP.        -0.592       AT NODE        189   DOF  3
   INSTANCE: PART-1-1                                                                        
 LARGEST CORRECTION TO DISP.       -0.137       AT NODE          1   DOF  3
   INSTANCE: REFPOINT-0                                                                      
          FORCE     EQUILIBRIUM NOT ACHIEVED WITHIN TOLERANCE.

 AVERAGE MOMENT                     1.188E-05   TIME AVG. MOMENT      3.425E-06
 LARGEST RESIDUAL MOMENT           -1.981E-04   AT NODE        183   DOF  4
   INSTANCE: PART-1-1                                                                        
 LARGEST INCREMENT OF ROTATION     -2.433E-02   AT NODE        189   DOF  4
   INSTANCE: PART-1-1                                                                        
 LARGEST CORRECTION TO ROTATION    -6.960E-03   AT NODE        189   DOF  4
   INSTANCE: PART-1-1                                                                        
          MOMENT    EQUILIBRIUM NOT ACHIEVED WITHIN TOLERANCE.

  NUMBER OF EQUATIONS =      1143     NUMBER OF RHS =    1
  NUMBER OF FLOATING PT. OPERATIONS =  2.15E+06

     CHECK POINT   START OF SOLVER    

     CHECK POINT  END OF SOLVER       

       ELAPSED USER TIME (SEC)      =  1.00000E-02
[...]
   INSTANCE: PART-1-1                                                                        
          FORCE     EQUILIBRIUM NOT ACHIEVED WITHIN TOLERANCE.

 AVERAGE MOMENT                     1.485E-05   TIME AVG. MOMENT      8.486E-06
 LARGEST RESIDUAL MOMENT           -1.645E-06   AT NODE        186   DOF  4
   INSTANCE: PART-1-1                                                                        
 LARGEST INCREMENT OF ROTATION      3.268E-04   AT NODE        192   DOF  4
   INSTANCE: PART-1-1                                                                        
 LARGEST CORRECTION TO ROTATION    -2.692E-03   AT NODE        189   DOF  4
   INSTANCE: PART-1-1                                                                        
          MOMENT    EQUILIBRIUM NOT ACHIEVED WITHIN TOLERANCE.

  NUMBER OF EQUATIONS =      1143     NUMBER OF RHS =    1
  NUMBER OF FLOATING PT. OPERATIONS =  2.15E+06

     CHECK POINT   START OF SOLVER    

     CHECK POINT  END OF SOLVER       

       ELAPSED USER TIME (SEC)      =   0.0000    
       ELAPSED SYSTEM TIME (SEC)    =   0.0000    
       ELAPSED TOTAL CPU TIME (SEC) =   0.0000    
       ELAPSED WALLCLOCK TIME (SEC) =          0

               CONVERGENCE CHECKS FOR EQUILIBRIUM ITERATION     2


 AVERAGE FORCE                      1.367E-06   TIME AVG. FORCE       8.691E-07
 LARGEST RESIDUAL FORCE             1.152E-09   AT NODE          1   DOF  2
   INSTANCE: REFPOINT-0                                                                      
 LARGEST INCREMENT OF DISP.         7.757E-03   AT NODE        189   DOF  3
   INSTANCE: PART-1-1                                                                        
 LARGEST CORRECTION TO DISP.       -7.477E-05   AT NODE          1   DOF  2
   INSTANCE: REFPOINT-0                                                                      
          THE FORCE     EQUILIBRIUM EQUATIONS HAVE CONVERGED

 AVERAGE MOMENT                     1.482E-05   TIME AVG. MOMENT      8.485E-06
 LARGEST RESIDUAL MOMENT           -1.090E-10   AT NODE        187   DOF  4
   INSTANCE: PART-1-1                                                                        
 LARGEST INCREMENT OF ROTATION      3.265E-04   AT NODE        191   DOF  4
   INSTANCE: PART-1-1                                                                        
 LARGEST CORRECTION TO ROTATION    -6.994E-07   AT NODE        129   DOF  5
   INSTANCE: PART-1-1                                                                        
          THE MOMENT    EQUILIBRIUM EQUATIONS HAVE CONVERGED
          TIME INCREMENT MAY NOW INCREASE TO    0.110    

 ITERATION SUMMARY FOR THE INCREMENT:   2 TOTAL ITERATIONS, OF WHICH
   0 ARE SEVERE DISCONTINUITY ITERATIONS AND  2 ARE EQUILIBRIUM ITERATIONS.

 TIME INCREMENT COMPLETED  7.336E-02,  FRACTION OF STEP COMPLETED  0.610    
 STEP TIME COMPLETED        1.22    ,  TOTAL TIME COMPLETED         1.22    


  INCREMENT    34 STARTS. ATTEMPT NUMBER  1, TIME INCREMENT  0.110    

  NUMBER OF EQUATIONS =      1143     NUMBER OF RHS =    1
  NUMBER OF FLOATING PT. OPERATIONS =  2.15E+06

     CHECK POINT   START OF SOLVER    

     CHECK POINT  END OF SOLVER       

       ELAPSED USER TIME (SEC)      =   0.0000    
       ELAPSED SYSTEM TIME (SEC)    =   0.0000    
       ELAPSED TOTAL CPU TIME (SEC) =   0.0000    
       ELAPSED WALLCLOCK TIME (SEC) =          0

               CONVERGENCE CHECKS FOR EQUILIBRIUM ITERATION     1


 AVERAGE FORCE                      1.791E-06   TIME AVG. FORCE       9.046E-07
 LARGEST RESIDUAL FORCE            -1.602E-05   AT NODE          1   DOF  2
   INSTANCE: REFPOINT-0                                                                      
 LARGEST INCREMENT OF DISP.        -6.991E-03   AT NODE        189   DOF  3
   INSTANCE: PART-1-1                                                                        
 LARGEST CORRECTION TO DISP.       -1.863E-02   AT NODE        189   DOF  3
   INSTANCE: PART-1-1                                                                        
          FORCE     EQUILIBRIUM NOT ACHIEVED WITHIN TOLERANCE.

 AVERAGE MOMENT                     1.483E-05   TIME AVG. MOMENT      8.672E-06
 LARGEST RESIDUAL MOMENT            2.509E-09   AT NODE        107   DOF  5
   INSTANCE: PART-1-1                                                                        
 LARGEST INCREMENT OF ROTATION     -2.942E-04   AT NODE        191   DOF  4
   INSTANCE: PART-1-1                                                                        
 LARGEST CORRECTION TO ROTATION    -7.839E-04   AT NODE        191   DOF  4
   INSTANCE: PART-1-1                                                                        
          ROTATION CORRECTION TOO LARGE COMPARED TO ROTATION INCREMENT

  NUMBER OF EQUATIONS =      1143     NUMBER OF RHS =    1
  NUMBER OF FLOATING PT. OPERATIONS =  2.15E+06

     CHECK POINT   START OF SOLVER    

     CHECK POINT  END OF SOLVER       

       ELAPSED USER TIME (SEC)      =  1.00000E-02
       ELAPSED SYSTEM TIME (SEC)    =   0.0000    
       ELAPSED TOTAL CPU TIME (SEC) =  1.00000E-02
       ELAPSED WALLCLOCK TIME (SEC) =          0

               CONVERGENCE CHECKS FOR EQUILIBRIUM ITERATION     2


 AVERAGE FORCE                      1.368E-06   TIME AVG. FORCE       8.883E-07
 LARGEST RESIDUAL FORCE             7.844E-12   AT NODE          1   DOF  2
   INSTANCE: REFPOINT-0                                                                      
 LARGEST INCREMENT OF DISP.        -6.989E-03   AT NODE        189   DOF  3
   INSTANCE: PART-1-1                                                                        
 LARGEST CORRECTION TO DISP.       -6.256E-06   AT NODE        189   DOF  2
   INSTANCE: PART-1-1                                                                        
          THE FORCE     EQUILIBRIUM EQUATIONS HAVE CONVERGED

 AVERAGE MOMENT                     1.483E-05   TIME AVG. MOMENT      8.672E-06
 LARGEST RESIDUAL MOMENT           -3.802E-12   AT NODE         81   DOF  5
   INSTANCE: PART-1-1                                                                        
 LARGEST INCREMENT OF ROTATION     -2.942E-04   AT NODE        191   DOF  4
   INSTANCE: PART-1-1                                                                        
 LARGEST CORRECTION TO ROTATION    -1.460E-08   AT NODE        144   DOF  4
   INSTANCE: PART-1-1                                                                        
          THE MOMENT    EQUILIBRIUM EQUATIONS HAVE CONVERGED
          TIME INCREMENT MAY NOW INCREASE TO    0.165    

 ITERATION SUMMARY FOR THE INCREMENT:   2 TOTAL ITERATIONS, OF WHICH
   0 ARE SEVERE DISCONTINUITY ITERATIONS AND  2 ARE EQUILIBRIUM ITERATIONS.

 TIME INCREMENT COMPLETED  0.110    ,  FRACTION OF STEP COMPLETED  0.665    
 STEP TIME COMPLETED        1.33    ,  TOTAL TIME COMPLETED         1.33    


  INCREMENT    35 STARTS. ATTEMPT NUMBER  1, TIME INCREMENT  0.165    

  NUMBER OF EQUATIONS =      1143     NUMBER OF RHS =    1
  NUMBER OF FLOATING PT. OPERATIONS =  2.15E+06

     CHECK POINT   START OF SOLVER    

     CHECK POINT  END OF SOLVER       

       ELAPSED USER TIME (SEC)      =  1.00000E-02
       ELAPSED SYSTEM TIME (SEC)    =   0.0000    
       ELAPSED TOTAL CPU TIME (SEC) =  1.00000E-02
       ELAPSED WALLCLOCK TIME (SEC) =          0

               CONVERGENCE CHECKS FOR EQUILIBRIUM ITERATION     1


 AVERAGE FORCE                      1.447E-06   TIME AVG. FORCE       9.090E-07
 LARGEST RESIDUAL FORCE            -3.861E-06   AT NODE          1   DOF  2
   INSTANCE: REFPOINT-0                                                                      
 LARGEST INCREMENT OF DISP.        -1.351E-03   AT NODE        189   DOF  3
   INSTANCE: PART-1-1                                                                        
 LARGEST CORRECTION TO DISP.        9.133E-03   AT NODE        189   DOF  3
   INSTANCE: PART-1-1                                                                        
          FORCE     EQUILIBRIUM NOT ACHIEVED WITHIN TOLERANCE.

 AVERAGE MOMENT                     1.482E-05   TIME AVG. MOMENT      8.847E-06
 LARGEST RESIDUAL MOMENT            5.276E-09   AT NODE        163   DOF  4
   INSTANCE: PART-1-1                                                                        
 LARGEST INCREMENT OF ROTATION     -5.684E-05   AT NODE        191   DOF  4
   INSTANCE: PART-1-1                                                                        
 LARGEST CORRECTION TO ROTATION     3.844E-04   AT NODE        191   DOF  4
   INSTANCE: PART-1-1                                                                        
          ROTATION CORRECTION TOO LARGE COMPARED TO ROTATION INCREMENT

  NUMBER OF EQUATIONS =      1143     NUMBER OF RHS =    1
  NUMBER OF FLOATING PT. OPERATIONS =  2.15E+06

     CHECK POINT   START OF SOLVER    

     CHECK POINT  END OF SOLVER       

       ELAPSED USER TIME (SEC)      =   0.0000    
       ELAPSED SYSTEM TIME (SEC)    =   0.0000    
       ELAPSED TOTAL CPU TIME (SEC) =   0.0000    
       ELAPSED WALLCLOCK TIME (SEC) =          0

               CONVERGENCE CHECKS FOR EQUILIBRIUM ITERATION     2


 AVERAGE FORCE                      1.369E-06   TIME AVG. FORCE       9.061E-07
 LARGEST RESIDUAL FORCE            -2.863E-12   AT NODE        186   DOF  3
   INSTANCE: PART-1-1                                                                        
 LARGEST INCREMENT OF DISP.        -1.351E-03   AT NODE        189   DOF  3
   INSTANCE: PART-1-1                                                                        
 LARGEST CORRECTION TO DISP.       -1.547E-06   AT NODE        189   DOF  2
   INSTANCE: PART-1-1                                                                        
          THE FORCE     EQUILIBRIUM EQUATIONS HAVE CONVERGED

 AVERAGE MOMENT                     1.483E-05   TIME AVG. MOMENT      8.848E-06
 LARGEST RESIDUAL MOMENT           -9.216E-13   AT NODE         93   DOF  5
   INSTANCE: PART-1-1                                                                        
 LARGEST INCREMENT OF ROTATION     -5.684E-05   AT NODE        191   DOF  4
   INSTANCE: PART-1-1                                                                        
 LARGEST CORRECTION TO ROTATION    -8.759E-09   AT NODE         65   DOF  4
   INSTANCE: PART-1-1                                                                        
          THE MOMENT    EQUILIBRIUM EQUATIONS HAVE CONVERGED
          TIME INCREMENT MAY NOW INCREASE TO    0.248    

 ITERATION SUMMARY FOR THE INCREMENT:   2 TOTAL ITERATIONS, OF WHICH
   0 ARE SEVERE DISCONTINUITY ITERATIONS AND  2 ARE EQUILIBRIUM ITERATIONS.

 TIME INCREMENT COMPLETED  0.165    ,  FRACTION OF STEP COMPLETED  0.748    
 STEP TIME COMPLETED        1.50    ,  TOTAL TIME COMPLETED         1.50    


  INCREMENT    36 STARTS. ATTEMPT NUMBER  1, TIME INCREMENT  0.248    

  NUMBER OF EQUATIONS =      1143     NUMBER OF RHS =    1
  NUMBER OF FLOATING PT. OPERATIONS =  2.15E+06

     CHECK POINT   START OF SOLVER    

     CHECK POINT  END OF SOLVER       

       ELAPSED USER TIME (SEC)      =   0.0000    
       ELAPSED SYSTEM TIME (SEC)    =   0.0000    
       ELAPSED TOTAL CPU TIME (SEC) =   0.0000    
       ELAPSED WALLCLOCK TIME (SEC) =          0

               CONVERGENCE CHECKS FOR EQUILIBRIUM ITERATION     1


 AVERAGE FORCE                      1.372E-06   TIME AVG. FORCE       9.227E-07
 LARGEST RESIDUAL FORCE            -2.283E-07   AT NODE          1   DOF  2
   INSTANCE: REFPOINT-0                                                                      
 LARGEST INCREMENT OF DISP.         1.974E-04   AT NODE        189   DOF  3
   INSTANCE: PART-1-1                                                                        
 LARGEST CORRECTION TO DISP.        2.224E-03   AT NODE        189   DOF  3
   INSTANCE: PART-1-1                                                                        
          FORCE     EQUILIBRIUM NOT ACHIEVED WITHIN TOLERANCE.

 AVERAGE MOMENT                     1.483E-05   TIME AVG. MOMENT      9.014E-06
 LARGEST RESIDUAL MOMENT            5.561E-11   AT NODE        123   DOF  4
   INSTANCE: PART-1-1                                                                        
 LARGEST INCREMENT OF ROTATION      8.315E-06   AT NODE        191   DOF  4
   INSTANCE: PART-1-1                                                                        
 LARGEST CORRECTION TO ROTATION     9.358E-05   AT NODE        191   DOF  4
   INSTANCE: PART-1-1                                                                        
          ROTATION CORRECTION TOO LARGE COMPARED TO ROTATION INCREMENT

  NUMBER OF EQUATIONS =      1143     NUMBER OF RHS =    1
  NUMBER OF FLOATING PT. OPERATIONS =  2.15E+06

     CHECK POINT   START OF SOLVER    

     CHECK POINT  END OF SOLVER       

       ELAPSED USER TIME (SEC)      =   0.0000    
       ELAPSED SYSTEM TIME (SEC)    =  1.00000E-02
       ELAPSED TOTAL CPU TIME (SEC) =  1.00000E-02
       ELAPSED WALLCLOCK TIME (SEC) =          0

               CONVERGENCE CHECKS FOR EQUILIBRIUM ITERATION     2


 AVERAGE FORCE                      1.369E-06   TIME AVG. FORCE       9.226E-07
 LARGEST RESIDUAL FORCE            -2.783E-12   AT NODE        127   DOF  3
   INSTANCE: PART-1-1                                                                        
 LARGEST INCREMENT OF DISP.         1.975E-04   AT NODE        189   DOF  3
   INSTANCE: PART-1-1                                                                        
 LARGEST CORRECTION TO DISP.       -9.212E-08   AT NODE          1   DOF  2
   INSTANCE: REFPOINT-0                                                                      
          THE FORCE     EQUILIBRIUM EQUATIONS HAVE CONVERGED

 AVERAGE MOMENT                     1.483E-05   TIME AVG. MOMENT      9.014E-06
 LARGEST RESIDUAL MOMENT           -3.570E-13   AT NODE        191   DOF  4
   INSTANCE: PART-1-1                                                                        
 LARGEST INCREMENT OF ROTATION      8.314E-06   AT NODE        191   DOF  4
   INSTANCE: PART-1-1                                                                        
 LARGEST CORRECTION TO ROTATION    -4.987E-10   AT NODE        165   DOF  4
   INSTANCE: PART-1-1                                                                        
          THE MOMENT    EQUILIBRIUM EQUATIONS HAVE CONVERGED
          TIME INCREMENT MAY NOW INCREASE TO    0.257    

 ITERATION SUMMARY FOR THE INCREMENT:   2 TOTAL ITERATIONS, OF WHICH
   0 ARE SEVERE DISCONTINUITY ITERATIONS AND  2 ARE EQUILIBRIUM ITERATIONS.

 TIME INCREMENT COMPLETED  0.248    ,  FRACTION OF STEP COMPLETED  0.871    
 STEP TIME COMPLETED        1.74    ,  TOTAL TIME COMPLETED         1.74    


  INCREMENT    37 STARTS. ATTEMPT NUMBER  1, TIME INCREMENT  0.257    

  NUMBER OF EQUATIONS =      1143     NUMBER OF RHS =    1
  NUMBER OF FLOATING PT. OPERATIONS =  2.15E+06

     CHECK POINT   START OF SOLVER    

     CHECK POINT  END OF SOLVER       

       ELAPSED USER TIME (SEC)      =   0.0000    
       ELAPSED SYSTEM TIME (SEC)    =   0.0000    
       ELAPSED TOTAL CPU TIME (SEC) =   0.0000    
       ELAPSED WALLCLOCK TIME (SEC) =          0

               CONVERGENCE CHECKS FOR EQUILIBRIUM ITERATION     1


 AVERAGE FORCE                      1.369E-06   TIME AVG. FORCE       9.380E-07
 LARGEST RESIDUAL FORCE            -1.454E-09   AT NODE          1   DOF  2
   INSTANCE: REFPOINT-0                                                                      
 LARGEST INCREMENT OF DISP.         2.765E-05   AT NODE        189   DOF  3
   INSTANCE: PART-1-1                                                                        
 LARGEST CORRECTION TO DISP.       -1.774E-04   AT NODE        189   DOF  3
   INSTANCE: PART-1-1                                                                        
          DISP.    CORRECTION TOO LARGE COMPARED TO DISP.    INCREMENT

 AVERAGE MOMENT                     1.483E-05   TIME AVG. MOMENT      9.171E-06
 LARGEST RESIDUAL MOMENT           -3.846E-13   AT NODE        186   DOF  5
   INSTANCE: PART-1-1                                                                        
 LARGEST INCREMENT OF ROTATION      1.164E-06   AT NODE        191   DOF  4
   INSTANCE: PART-1-1                                                                        
 LARGEST CORRECTION TO ROTATION    -7.472E-06   AT NODE        191   DOF  4
   INSTANCE: PART-1-1                                                                        
          ROTATION CORRECTION TOO LARGE COMPARED TO ROTATION INCREMENT

  NUMBER OF EQUATIONS =      1143     NUMBER OF RHS =    1
  NUMBER OF FLOATING PT. OPERATIONS =  2.15E+06

     CHECK POINT   START OF SOLVER    

     CHECK POINT  END OF SOLVER       

       ELAPSED USER TIME (SEC)      =   0.0000    
       ELAPSED SYSTEM TIME (SEC)    =   0.0000    
       ELAPSED TOTAL CPU TIME (SEC) =   0.0000    
       ELAPSED WALLCLOCK TIME (SEC) =          0

               CONVERGENCE CHECKS FOR EQUILIBRIUM ITERATION     2


 AVERAGE FORCE                      1.369E-06   TIME AVG. FORCE       9.380E-07
 LARGEST RESIDUAL FORCE             4.250E-12   AT NODE        187   DOF  3
   INSTANCE: PART-1-1                                                                        
 LARGEST INCREMENT OF DISP.         2.765E-05   AT NODE        189   DOF  3
   INSTANCE: PART-1-1                                                                        
 LARGEST CORRECTION TO DISP.       -6.038E-10   AT NODE          1   DOF  2
   INSTANCE: REFPOINT-0                                                                      
          THE FORCE     EQUILIBRIUM EQUATIONS HAVE CONVERGED

 AVERAGE MOMENT                     1.483E-05   TIME AVG. MOMENT      9.171E-06
 LARGEST RESIDUAL MOMENT            5.600E-13   AT NODE        186   DOF  5
   INSTANCE: PART-1-1                                                                        
 LARGEST INCREMENT OF ROTATION      1.164E-06   AT NODE        191   DOF  4
   INSTANCE: PART-1-1                                                                        
 LARGEST CORRECTION TO ROTATION    -3.973E-12   AT NODE         65   DOF  4
   INSTANCE: PART-1-1                                                                        
          THE MOMENT    EQUILIBRIUM EQUATIONS HAVE CONVERGED

 ITERATION SUMMARY FOR THE INCREMENT:   2 TOTAL ITERATIONS, OF WHICH
   0 ARE SEVERE DISCONTINUITY ITERATIONS AND  2 ARE EQUILIBRIUM ITERATIONS.

 TIME INCREMENT COMPLETED  0.257    ,  FRACTION OF STEP COMPLETED   1.00    
 STEP TIME COMPLETED        2.00    ,  TOTAL TIME COMPLETED         2.00    


          THE ANALYSIS HAS BEEN COMPLETED



     ANALYSIS SUMMARY:
     TOTAL OF         37  INCREMENTS
                       1  CUTBACKS IN AUTOMATIC INCREMENTATION
                     186  ITERATIONS INCLUDING CONTACT ITERATIONS IF PRESENT
                     186  PASSES THROUGH THE EQUATION SOLVER OF WHICH 
                     186  INVOLVE MATRIX DECOMPOSITION, INCLUDING
                       0  DECOMPOSITION(S) OF THE MASS MATRIX
                       1  REORDERING OF EQUATIONS TO MINIMIZE WAVEFRONT
                       0  ADDITIONAL RESIDUAL EVALUATIONS FOR LINE SEARCHES
                       0  ADDITIONAL OPERATOR EVALUATIONS FOR LINE SEARCHES
                       2  WARNING MESSAGES DURING USER INPUT PROCESSING
                       9  WARNING MESSAGES DURING ANALYSIS
                       0  ANALYSIS WARNINGS ARE NUMERICAL PROBLEM MESSAGES
                       2  ANALYSIS WARNINGS ARE NEGATIVE EIGENVALUE MESSAGES
                       0  ERROR MESSAGES



     JOB TIME SUMMARY
       USER TIME (SEC)      =   5.0200    
       SYSTEM TIME (SEC)    =  0.29000    
       TOTAL CPU TIME (SEC) =   5.3100    
       WALLCLOCK TIME (SEC) =          6
