 Abaqus/Standard 2021                  DATE 14-Feb-2023 TIME 14:20:57
 SUMMARY OF JOB INFORMATION:
 STEP  INC ATT SEVERE EQUIL TOTAL  TOTAL      STEP       INC OF       DOF    IF
               DISCON ITERS ITERS  TIME/    TIME/LPF    TIME/LPF    MONITOR RIKS
               ITERS               FREQ
   1     1   1     0     3     3  0.0740     0.0740     0.07400   
   1     2   1     0     6     6  0.144      0.144      0.07039   
   1     3   1     0     6     6  0.212      0.212      0.06711   
   1     4   1     0     6     6  0.276      0.276      0.06413   
   1     5   1     0     6     6  0.337      0.337      0.06140   
   1     6   1     0     6     6  0.396      0.396      0.05889   
   1     7   1     0     6     6  0.453      0.453      0.05658   
   1     8   1     0     6     6  0.507      0.507      0.05445   
   1     9   1     0     6     6  0.559      0.559      0.05247   
   1    10   1     0     5     5  0.610      0.610      0.05063   
   1    11   1     0     5     5  0.659      0.659      0.04891   
   1    12   1     0     5     5  0.706      0.706      0.04731   
   1    13   1     0     5     5  0.752      0.752      0.04580   
   1    14   1     0     4     4  0.796      0.796      0.04440   
   1    15   1     0     4     4  0.840      0.840      0.04307   
   1    16   1     0     4     4  0.881      0.881      0.04182   
   1    17   1     0     4     4  0.922      0.922      0.04064   
   1    18   1     0     3     3  0.962      0.962      0.03953   
   1    19   1     0     3     3  1.00       1.00       0.03847   
   1    20   1U    0     5     5  1.00       1.00       0.1500    
   1    20   2     0     4     4  1.04       1.04       0.03750   
   1    21   1     0     3     3  1.09       1.09       0.05625   
   1    22   1     0     2     2  1.18       1.18       0.08438   
   1    23   1     0     2     2  1.30       1.30       0.1266    
   1    24   1     0     2     2  1.49       1.49       0.1898    
   1    25   1     0     2     2  1.78       1.78       0.2848    
   1    26   1     0     2     2  2.00       2.00       0.2207    
                          
 THE ANALYSIS HAS COMPLETED SUCCESSFULLY
