 Abaqus/Standard 2021                  DATE 14-Feb-2023 TIME 14:21:41
 SUMMARY OF JOB INFORMATION:
 STEP  INC ATT SEVERE EQUIL TOTAL  TOTAL      STEP       INC OF       DOF    IF
               DISCON ITERS ITERS  TIME/    TIME/LPF    TIME/LPF    MONITOR RIKS
               ITERS               FREQ
   1     1   1     0     2     2  0.0130     0.0130     0.01299   
   1     2   1     0     1     1  0.0260     0.0260     0.01299   
   1     3   1     0     1     1  0.0390     0.0390     0.01299   
   1     4   1     0     1     1  0.0519     0.0519     0.01299   
   1     5   1     0     1     1  0.0649     0.0649     0.01299   
   1     6   1     0     1     1  0.0779     0.0779     0.01299   
   1     7   1     0     1     1  0.0909     0.0909     0.01299   
   1     8   1     0     1     1  0.104      0.104      0.01299   
   1     9   1     0     1     1  0.117      0.117      0.01299   
   1    10   1     0     1     1  0.130      0.130      0.01299   
   1    11   1     0     1     1  0.143      0.143      0.01299   
   1    12   1     0     1     1  0.156      0.156      0.01299   
   1    13   1     0     1     1  0.169      0.169      0.01299   
   1    14   1     0     1     1  0.182      0.182      0.01299   
   1    15   1     0     1     1  0.195      0.195      0.01299   
   1    16   1     0     1     1  0.208      0.208      0.01299   
   1    17   1     0     1     1  0.221      0.221      0.01299   
   1    18   1     0     1     1  0.234      0.234      0.01299   
   1    19   1     0     1     1  0.247      0.247      0.01299   
   1    20   1     0     1     1  0.260      0.260      0.01299   
   1    21   1     0     1     1  0.273      0.273      0.01299   
   1    22   1     0     1     1  0.286      0.286      0.01299   
   1    23   1     0     1     1  0.299      0.299      0.01299   
   1    24   1     0     1     1  0.312      0.312      0.01299   
   1    25   1     0     1     1  0.325      0.325      0.01299   
   1    26   1     0     1     1  0.338      0.338      0.01299   
   1    27   1     0     1     1  0.351      0.351      0.01299   
   1    28   1     0     1     1  0.364      0.364      0.01299   
   1    29   1     0     1     1  0.377      0.377      0.01299   
   1    30   1     0     1     1  0.390      0.390      0.01299   
   1    31   1     0     1     1  0.403      0.403      0.01299   
   1    32   1     0     1     1  0.416      0.416      0.01299   
   1    33   1     0     1     1  0.429      0.429      0.01299   
   1    34   1     0     1     1  0.442      0.442      0.01299   
   1    35   1     0     1     1  0.455      0.455      0.01299   
   1    36   1     0     1     1  0.468      0.468      0.01299   
   1    37   1     0     1     1  0.481      0.481      0.01299   
   1    38   1     0     1     1  0.494      0.494      0.01299   
   1    39   1     0     1     1  0.506      0.506      0.01299   
   1    40   1     0     1     1  0.519      0.519      0.01299   
   1    41   1     0     1     1  0.532      0.532      0.01299   
   1    42   1     0     1     1  0.545      0.545      0.01299   
   1    43   1     0     1     1  0.558      0.558      0.01299   
   1    44   1     0     1     1  0.571      0.571      0.01299   
   1    45   1     0     1     1  0.584      0.584      0.01299   
   1    46   1     0     1     1  0.597      0.597      0.01299   
   1    47   1     0     1     1  0.610      0.610      0.01299   
   1    48   1     0     1     1  0.623      0.623      0.01299   
   1    49   1     0     1     1  0.636      0.636      0.01299   
   1    50   1     0     1     1  0.649      0.649      0.01299   
   1    51   1     0     1     1  0.662      0.662      0.01299   
   1    52   1     0     1     1  0.675      0.675      0.01299   
   1    53   1     0     1     1  0.688      0.688      0.01299   
   1    54   1     0     1     1  0.701      0.701      0.01299   
   1    55   1     0     1     1  0.714      0.714      0.01299   
   1    56   1     0     1     1  0.727      0.727      0.01299   
   1    57   1     0     1     1  0.740      0.740      0.01299   
   1    58   1     0     1     1  0.753      0.753      0.01299   
   1    59   1     0     1     1  0.766      0.766      0.01299   
   1    60   1     0     1     1  0.779      0.779      0.01299   
   1    61   1     0     1     1  0.792      0.792      0.01299   
   1    62   1     0     1     1  0.805      0.805      0.01299   
   1    63   1     0     1     1  0.818      0.818      0.01299   
   1    64   1     0     1     1  0.831      0.831      0.01299   
   1    65   1     0     1     1  0.844      0.844      0.01299   
   1    66   1     0     1     1  0.857      0.857      0.01299   
   1    67   1     0     1     1  0.870      0.870      0.01299   
   1    68   1     0     1     1  0.883      0.883      0.01299   
   1    69   1     0     1     1  0.896      0.896      0.01299   
   1    70   1     0     1     1  0.909      0.909      0.01299   
   1    71   1     0     1     1  0.922      0.922      0.01299   
   1    72   1     0     1     1  0.935      0.935      0.01299   
   1    73   1     0     1     1  0.948      0.948      0.01299   
   1    74   1     0     1     1  0.961      0.961      0.01299   
   1    75   1     0     1     1  0.974      0.974      0.01299   
   1    76   1     0     1     1  0.987      0.987      0.01299   
   1    77   1     0     1     1  1.00       1.00       0.01299   
                          
 THE ANALYSIS HAS COMPLETED SUCCESSFULLY
