1

   Abaqus 2021                                  Date 14-Feb-2023   Time 14:20:57
   For use by HARVARD COLLEGE PRESIDENT AND FELLOWS OF under license from Dassault Systemes or its subsidiary.

                                                                                 
                                                                                 
 STEP    1     INCREMENT     1     STEP TIME    0.00    


                        S T E P       1     D Y N A M I C   A N A L Y S I S - I M P L I C I T  I N T E G R A T I O N


                                                                                          

          DYNAMIC APPLICATION PACKED SCHEME IS                 QUASI-STATIC        
          BACKWARD EULER (BWE) TIME INTEGRATOR IS USED

     AUTOMATIC TIME CONTROL WITH -
          A SUGGESTED INITIAL TIME INCREMENT OF                0.100    
          AND A TOTAL TIME PERIOD OF                            2.00    
          THE MINIMUM TIME INCREMENT ALLOWED IS                5.000E-12
          THE MAXIMUM TIME INCREMENT ALLOWED IS                 2.00    

          THE HALF-INCREMENT RESIDUALS WILL NOT BE CALCULATED

          INITIAL ACCELERATIONS WILL NOT BE CALCULATED
          AGGRESSIVE   TIME INCREMENTATION IS USED
          STEP AMPLITUDE IS                                    RAMP

 CONVERGENCE TOLERANCE PARAMETERS FOR FORCE    
     CRITERION FOR RESIDUAL FORCE     FOR A NONLINEAR PROBLEM          5.000E-03
     CRITERION FOR DISP.    CORRECTION IN A NONLINEAR PROBLEM          1.000E-02
     INITIAL VALUE OF TIME AVERAGE FORCE                               1.000E-02
     AVERAGE FORCE     IS TIME AVERAGE FORCE    
     ALTERNATE CRIT. FOR RESIDUAL FORCE     FOR A NONLINEAR PROBLEM    2.000E-02
     CRITERION FOR ZERO FORCE     RELATIVE TO TIME AVRG. FORCE         1.000E-05
     CRITERION FOR RESIDUAL FORCE     WHEN THERE IS ZERO FLUX          1.000E-05
     CRITERION FOR DISP.    CORRECTION WHEN THERE IS ZERO FLUX         1.000E-03
     CRITERION FOR RESIDUAL FORCE     FOR A LINEAR INCREMENT           1.000E-08
     FIELD CONVERSION RATIO                                             1.00    
     CRITERION FOR ZERO FORCE     REL. TO TIME AVRG. MAX. FORCE        1.000E-05
     CRITERION FOR ZERO DISP.    RELATIVE TO CHARACTERISTIC LENGTH     1.000E-08

 CONVERGENCE TOLERANCE PARAMETERS FOR MOMENT   
     CRITERION FOR RESIDUAL MOMENT    FOR A NONLINEAR PROBLEM          5.000E-03
     CRITERION FOR ROTATION CORRECTION IN A NONLINEAR PROBLEM          1.000E-02
     INITIAL VALUE OF TIME AVERAGE MOMENT                              1.000E-02
     AVERAGE MOMENT    IS TIME AVERAGE MOMENT   
     ALTERNATE CRIT. FOR RESIDUAL MOMENT    FOR A NONLINEAR PROBLEM    2.000E-02
     CRITERION FOR ZERO MOMENT    RELATIVE TO TIME AVRG. MOMENT        1.000E-05
     CRITERION FOR RESIDUAL MOMENT    WHEN THERE IS ZERO FLUX          1.000E-05
     CRITERION FOR ROTATION CORRECTION WHEN THERE IS ZERO FLUX         1.000E-03
     CRITERION FOR RESIDUAL MOMENT    FOR A LINEAR INCREMENT           1.000E-08
     FIELD CONVERSION RATIO                                             1.00    
     CRITERION FOR ZERO MOMENT    REL. TO TIME AVRG. MAX. MOMENT       1.000E-05

     VOLUMETRIC STRAIN COMPATIBILITY TOLERANCE FOR HYBRID SOLIDS       1.000E-05
     AXIAL STRAIN COMPATIBILITY TOLERANCE FOR HYBRID BEAMS             1.000E-05
     TRANS. SHEAR STRAIN COMPATIBILITY TOLERANCE FOR HYBRID BEAMS      1.000E-05
     SOFT CONTACT CONSTRAINT COMPATIBILITY TOLERANCE FOR P>P0          5.000E-03
     SOFT CONTACT CONSTRAINT COMPATIBILITY TOLERANCE FOR P=0.0         0.100    
     CONTACT FORCE ERROR TOLERANCE FOR CONVERT SDI=YES                 1.00    
     DISPLACEMENT COMPATIBILITY TOLERANCE FOR DCOUP ELEMENTS           1.000E-05
     ROTATION COMPATIBILITY TOLERANCE FOR DCOUP ELEMENTS               1.000E-05

 EQUILIBRIUM WILL BE CHECKED FOR SEVERE DISCONTINUITY ITERATIONS

 TIME INCREMENTATION CONTROL PARAMETERS:
     FIRST EQUILIBRIUM ITERATION FOR CONSECUTIVE DIVERGENCE CHECK              4
     EQUILIBRIUM ITERATION AT WHICH LOG. CONVERGENCE RATE CHECK BEGINS         8
     EQUILIBRIUM ITERATION AFTER WHICH ALTERNATE RESIDUAL IS USED              9
     MAXIMUM EQUILIBRIUM ITERATIONS ALLOWED                                   16
     EQUILIBRIUM ITERATION COUNT FOR CUT-BACK IN NEXT INCREMENT               10
     MAXIMUM EQUILIB. ITERS IN TWO INCREMENTS FOR TIME INCREMENT INCREASE      4
     MAXIMUM ITERATIONS FOR SEVERE DISCONTINUITIES                            50
 *** MAXIMUM ATTEMPTS ALLOWED IN AN INCREMENT                                 25
     MAXIMUM DISCON. ITERS IN TWO INCREMENTS FOR TIME INCREMENT INCREASE      50
     MAXIMUM CONTACT AUGMENTATIONS FOR *SURFACE BEHAVIOR,AUGMENTED LAGRANGE   50
     CUT-BACK FACTOR AFTER DIVERGENCE                                 0.2500    
     CUT-BACK FACTOR FOR TOO SLOW CONVERGENCE                         0.5000    
     CUT-BACK FACTOR AFTER TOO MANY EQUILIBRIUM ITERATIONS            0.7500    
     CUT-BACK FACTOR AFTER TOO MANY SEVERE DISCONTINUITY ITERATIONS   0.2500    
     CUT-BACK FACTOR AFTER PROBLEMS IN ELEMENT ASSEMBLY               0.2500    
     INCREASE FACTOR AFTER TWO INCREMENTS THAT CONVERGE QUICKLY        1.500    
     MAX. TIME INCREMENT INCREASE FACTOR ALLOWED                       1.500    
     MAX. TIME INCREMENT INCREASE FACTOR ALLOWED (DYNAMICS)            1.250    
     MAX. TIME INCREMENT INCREASE FACTOR ALLOWED (DIFFUSION)           2.000    
     MINIMUM TIME INCREMENT RATIO FOR EXTRAPOLATION TO OCCUR          0.1000    
     MAX. RATIO OF TIME INCREMENT TO STABILITY LIMIT                   1.000    
     FRACTION OF STABILITY LIMIT FOR NEW TIME INCREMENT               0.9500    
     TIME INCREMENT INCREASE FACTOR BEFORE A TIME POINT                1.000    

 *** INDICATES USE OF NON-DEFAULT TIME INCREMENTATION CONTROL PARAMETER
     SELECTED WITH *CONTROLS
     GLOBAL STABILIZATION CONTROL IS NOT USED

          PRINT OF INCREMENT NUMBER, TIME, ETC., EVERY    1  INCREMENTS

     THE MAXIMUM NUMBER OF INCREMENTS IN THIS STEP IS                     500

          LARGE DISPLACEMENT THEORY WILL BE USED

     LINEAR EXTRAPOLATION WILL BE USED

     CHARACTERISTIC ELEMENT LENGTH     0.851    

     DETAILS REGARDING ACTUAL SOLUTION WAVEFRONT REQUESTED

     DETAILED OUTPUT OF DIAGNOSTICS TO DATABASE REQUESTED

     PRINT OF INCREMENT NUMBER, TIME, ETC., TO THE MESSAGE FILE EVERY     1  INCREMENTS
          THE INITIAL TIME INCREMENT WAS REDUCED TO   7.400E-02 TO MEET THE NEXT OUTPUT TIME POINT

     COLLECTING MODEL CONSTRAINT INFORMATION FOR OVERCONSTRAINT CHECKS

     COLLECTING STEP CONSTRAINT INFORMATION FOR OVERCONSTRAINT CHECKS


  INCREMENT     1 STARTS. ATTEMPT NUMBER  1, TIME INCREMENT  7.400E-02

  NUMBER OF EQUATIONS =      1143     NUMBER OF RHS =    1
  NUMBER OF FLOATING PT. OPERATIONS =  2.15E+06

     CHECK POINT   START OF SOLVER    

     CHECK POINT  END OF SOLVER       

       ELAPSED USER TIME (SEC)      =   0.0000    
       ELAPSED SYSTEM TIME (SEC)    =   0.0000    
       ELAPSED TOTAL CPU TIME (SEC) =   0.0000    
       ELAPSED WALLCLOCK TIME (SEC) =          0

               CONVERGENCE CHECKS FOR EQUILIBRIUM ITERATION     1


 AVERAGE FORCE                      1.316E-04   TIME AVG. FORCE       1.316E-04
 LARGEST RESIDUAL FORCE            -1.427E-02   AT NODE          1   DOF  2
   INSTANCE: REFPOINT-0                                                                      
 LARGEST INCREMENT OF DISP.        -0.431       AT NODE        189   DOF  3
   INSTANCE: PART-1-1                                                                        
 LARGEST CORRECTION TO DISP.       -0.431       AT NODE        189   DOF  3
   INSTANCE: PART-1-1                                                                        
          FORCE     EQUILIBRIUM NOT ACHIEVED WITHIN TOLERANCE.

 AVERAGE MOMENT                     4.562E-06   TIME AVG. MOMENT      4.562E-06
 LARGEST RESIDUAL MOMENT            1.734E-04   AT NODE        187   DOF  4
   INSTANCE: PART-1-1                                                                        
 LARGEST INCREMENT OF ROTATION     -1.639E-02   AT NODE        191   DOF  4
   INSTANCE: PART-1-1                                                                        
 LARGEST CORRECTION TO ROTATION    -1.639E-02   AT NODE        191   DOF  4
   INSTANCE: PART-1-1                                                                        
          MOMENT    EQUILIBRIUM NOT ACHIEVED WITHIN TOLERANCE.

  NUMBER OF EQUATIONS =      1143     NUMBER OF RHS =    1
  NUMBER OF FLOATING PT. OPERATIONS =  2.15E+06

     CHECK POINT   START OF SOLVER    

     CHECK POINT  END OF SOLVER       

       ELAPSED USER TIME (SEC)      =  1.00000E-02
       ELAPSED SYSTEM TIME (SEC)    =  1.00000E-02
       ELAPSED TOTAL CPU TIME (SEC) =  2.00000E-02
       ELAPSED WALLCLOCK TIME (SEC) =          0

               CONVERGENCE CHECKS FOR EQUILIBRIUM ITERATION     2


 AVERAGE FORCE                      3.995E-08   TIME AVG. FORCE       1.176E-02
                                                (FROM MOMENT    FIELD)
 LARGEST RESIDUAL FORCE             2.878E-06   AT NODE          1   DOF  2
   INSTANCE: REFPOINT-0                                                                      
 LARGEST INCREMENT OF DISP.        -0.431       AT NODE        189   DOF  3
   INSTANCE: PART-1-1                                                                        
 LARGEST CORRECTION TO DISP.       -3.034E-03   AT NODE        189   DOF  2
   INSTANCE: PART-1-1                                                                        
          THE FORCE     IS ZERO EVERYWHERE BUT THE FORCE     RESIDUAL OR
          THE DISP.    CORRECTION IS NON-ZERO

 AVERAGE MOMENT                     5.336E-07   TIME AVG. MOMENT      5.336E-07
 LARGEST RESIDUAL MOMENT            6.890E-08   AT NODE        187   DOF  5
   INSTANCE: PART-1-1                                                                        
 LARGEST INCREMENT OF ROTATION     -1.639E-02   AT NODE        192   DOF  4
   INSTANCE: PART-1-1                                                                        
 LARGEST CORRECTION TO ROTATION    -5.429E-06   AT NODE        192   DOF  4
   INSTANCE: PART-1-1                                                                        
          MOMENT    EQUILIBRIUM NOT ACHIEVED WITHIN TOLERANCE.

  NUMBER OF EQUATIONS =      1143     NUMBER OF RHS =    1
  NUMBER OF FLOATING PT. OPERATIONS =  2.15E+06

     CHECK POINT   START OF SOLVER    

     CHECK POINT  END OF SOLVER       

       ELAPSED USER TIME (SEC)      =   0.0000    
       ELAPSED SYSTEM TIME (SEC)    =   0.0000    
       ELAPSED TOTAL CPU TIME (SEC) =   0.0000    
       ELAPSED WALLCLOCK TIME (SEC) =          0

               CONVERGENCE CHECKS FOR EQUILIBRIUM ITERATION     3


 AVERAGE FORCE                      1.895E-08   TIME AVG. FORCE       1.176E-02
                                                (FROM MOMENT    FIELD)
 LARGEST RESIDUAL FORCE            -2.423E-09   AT NODE          1   DOF  2
   INSTANCE: REFPOINT-0                                                                      
 LARGEST INCREMENT OF DISP.        -0.431       AT NODE        189   DOF  3
   INSTANCE: PART-1-1                                                                        
 LARGEST CORRECTION TO DISP.        1.442E-04   AT NODE        189   DOF  3
   INSTANCE: PART-1-1                                                                        
          THERE IS ZERO FORCE     EVERYWHERE

 AVERAGE MOMENT                     5.327E-07   TIME AVG. MOMENT      5.327E-07
 LARGEST RESIDUAL MOMENT           -2.198E-11   AT NODE        187   DOF  4
   INSTANCE: PART-1-1                                                                        
 LARGEST INCREMENT OF ROTATION     -1.639E-02   AT NODE        191   DOF  4
   INSTANCE: PART-1-1                                                                        
 LARGEST CORRECTION TO ROTATION     7.108E-06   AT NODE        192   DOF  4
   INSTANCE: PART-1-1                                                                        
          THE MOMENT    EQUILIBRIUM EQUATIONS HAVE CONVERGED
          TIME INCREMENT REDUCED TO   7.039E-02 TO MEET NEXT OUTPUT TIME POINT

 ITERATION SUMMARY FOR THE INCREMENT:   3 TOTAL ITERATIONS, OF WHICH
   0 ARE SEVERE DISCONTINUITY ITERATIONS AND  3 ARE EQUILIBRIUM ITERATIONS.

 TIME INCREMENT COMPLETED  7.400E-02,  FRACTION OF STEP COMPLETED  3.700E-02
 STEP TIME COMPLETED       7.400E-02,  TOTAL TIME COMPLETED        7.400E-02


  INCREMENT     2 STARTS. ATTEMPT NUMBER  1, TIME INCREMENT  7.039E-02

  NUMBER OF EQUATIONS =      1143     NUMBER OF RHS =    1
  NUMBER OF FLOATING PT. OPERATIONS =  2.15E+06

     CHECK POINT   START OF SOLVER    

     CHECK POINT  END OF SOLVER       

       ELAPSED USER TIME (SEC)      =   0.0000    
       ELAPSED SYSTEM TIME (SEC)    =   0.0000    
       ELAPSED TOTAL CPU TIME (SEC) =   0.0000    
       ELAPSED WALLCLOCK TIME (SEC) =          0

               CONVERGENCE CHECKS FOR EQUILIBRIUM ITERATION     1


 AVERAGE FORCE                      2.387E-05   TIME AVG. FORCE       2.387E-05
 LARGEST RESIDUAL FORCE            -2.817E-03   AT NODE          1   DOF  2
   INSTANCE: REFPOINT-0                                                                      
 LARGEST INCREMENT OF DISP.        -0.577       AT NODE        189   DOF  3
   INSTANCE: PART-1-1                                                                        
 LARGEST CORRECTION TO DISP.       -0.167       AT NODE        189   DOF  3
   INSTANCE: PART-1-1                                                                        
          FORCE     EQUILIBRIUM NOT ACHIEVED WITHIN TOLERANCE.

 AVERAGE MOMENT                     1.106E-05   TIME AVG. MOMENT      5.798E-06
 LARGEST RESIDUAL MOMENT           -2.015E-04   AT NODE        182   DOF  4
   INSTANCE: PART-1-1                                                                        
 LARGEST INCREMENT OF ROTATION     -2.295E-02   AT NODE        192   DOF  4
   INSTANCE: PART-1-1                                                                        
 LARGEST CORRECTION TO ROTATION    -7.362E-03   AT NODE        192   DOF  4
   INSTANCE: PART-1-1                                                                        
          MOMENT    EQUILIBRIUM NOT ACHIEVED WITHIN TOLERANCE.

  NUMBER OF EQUATIONS =      1143     NUMBER OF RHS =    1
  NUMBER OF FLOATING PT. OPERATIONS =  2.15E+06

     CHECK POINT   START OF SOLVER    

     CHECK POINT  END OF SOLVER       

       ELAPSED USER TIME (SEC)      =   0.0000    
       ELAPSED SYSTEM TIME (SEC)    =   0.0000    
       ELAPSED TOTAL CPU TIME (SEC) =   0.0000    
       ELAPSED WALLCLOCK TIME (SEC) =          0

               CONVERGENCE CHECKS FOR EQUILIBRIUM ITERATION     2


 AVERAGE FORCE                      6.359E-08   TIME AVG. FORCE       1.000E-02
 LARGEST RESIDUAL FORCE            -1.628E-06   AT NODE          1   DOF  3
   INSTANCE: REFPOINT-0                                                                      
 LARGEST INCREMENT OF DISP.        -0.572       AT NODE        189   DOF  3
   INSTANCE: PART-1-1                                                                        
 LARGEST CORRECTION TO DISP.        4.318E-03   AT NODE        189   DOF  3
   INSTANCE: PART-1-1                                                                        
          THE FORCE     IS ZERO EVERYWHERE BUT THE FORCE     RESIDUAL OR
          THE DISP.    CORRECTION IS NON-ZERO

 AVERAGE MOMENT                     2.552E-06   TIME AVG. MOMENT      1.542E-06
 LARGEST RESIDUAL MOMENT            5.522E-07   AT NODE        187   DOF  4
   INSTANCE: PART-1-1                                                                        
 LARGEST INCREMENT OF ROTATION     -2.276E-02   AT NODE        192   DOF  4
   INSTANCE: PART-1-1                                                                        
 LARGEST CORRECTION TO ROTATION     1.850E-04   AT NODE        148   DOF  4
   INSTANCE: PART-1-1                                                                        
          MOMENT    EQUILIBRIUM NOT ACHIEVED WITHIN TOLERANCE.

  NUMBER OF EQUATIONS =      1143     NUMBER OF RHS =    1
  NUMBER OF FLOATING PT. OPERATIONS =  2.15E+06

     CHECK POINT   START OF SOLVER    

     CHECK POINT  END OF SOLVER       

       ELAPSED USER TIME (SEC)      =   0.0000    
       ELAPSED SYSTEM TIME (SEC)    =   0.0000    
       ELAPSED TOTAL CPU TIME (SEC) =   0.0000    
       ELAPSED WALLCLOCK TIME (SEC) =          0

               CONVERGENCE CHECKS FOR EQUILIBRIUM ITERATION     3


 AVERAGE FORCE                      7.696E-06   TIME AVG. FORCE       7.696E-06
 LARGEST RESIDUAL FORCE            -1.146E-03   AT NODE          1   DOF  2
   INSTANCE: REFPOINT-0                                                                      
 LARGEST INCREMENT OF DISP.        -0.474       AT NODE        189   DOF  3
   INSTANCE: PART-1-1                                                                        
 LARGEST CORRECTION TO DISP.        9.836E-02   AT NODE        189   DOF  3
   INSTANCE: PART-1-1                                                                        
          FORCE     EQUILIBRIUM NOT ACHIEVED WITHIN TOLERANCE.

 AVERAGE MOMENT                     2.337E-06   TIME AVG. MOMENT      1.435E-06
 LARGEST RESIDUAL MOMENT           -3.941E-06   AT NODE        186   DOF  4
   INSTANCE: PART-1-1                                                                        
 LARGEST INCREMENT OF ROTATION     -1.811E-02   AT NODE        192   DOF  4
   INSTANCE: PART-1-1                                                                        
 LARGEST CORRECTION TO ROTATION     4.654E-03   AT NODE        192   DOF  4
   INSTANCE: PART-1-1                                                                        
          MOMENT    EQUILIBRIUM NOT ACHIEVED WITHIN TOLERANCE.

  NUMBER OF EQUATIONS =      1143     NUMBER OF RHS =    1
  NUMBER OF FLOATING PT. OPERATIONS =  2.15E+06

     CHECK POINT   START OF SOLVER    

     CHECK POINT  END OF SOLVER       

       ELAPSED USER TIME (SEC)      =   0.0000    
       ELAPSED SYSTEM TIME (SEC)    =   0.0000    
       ELAPSED TOTAL CPU TIME (SEC) =   0.0000    
       ELAPSED WALLCLOCK TIME (SEC) =          0

               CONVERGENCE CHECKS FOR EQUILIBRIUM ITERATION     4


 AVERAGE FORCE                      4.219E-08   TIME AVG. FORCE       1.000E-02
 LARGEST RESIDUAL FORCE            -2.380E-08   AT NODE          1   DOF  3
   INSTANCE: REFPOINT-0                                                                      
 LARGEST INCREMENT OF DISP.        -0.474       AT NODE        189   DOF  3
   INSTANCE: PART-1-1                                                                        
 LARGEST CORRECTION TO DISP.       -1.714E-04   AT NODE        189   DOF  2
   INSTANCE: PART-1-1                                                                        
          THERE IS ZERO FORCE     EVERYWHERE
 

 ***WARNING: THERE IS ZERO FORCE EVERYWHERE IN THE MODEL BASED ON THE DEFAULT 
             CRITERION. PLEASE CHECK THE VALUE OF THE AVERAGE FORCE DURING THE 
             CURRENT ITERATION TO VERIFY THAT THE FORCE IS SMALL ENOUGH TO BE 
             TREATED AS ZERO. IF NOT, PLEASE USE THE SOLUTION CONTROLS TO RESET 
             THE CRITERION FOR ZERO FORCE.

 AVERAGE MOMENT                     2.264E-06   TIME AVG. MOMENT      1.398E-06
 LARGEST RESIDUAL MOMENT            7.828E-09   AT NODE        187   DOF  4
   INSTANCE: PART-1-1                                                                        
 LARGEST INCREMENT OF ROTATION     -1.810E-02   AT NODE        191   DOF  4
   INSTANCE: PART-1-1                                                                        
 LARGEST CORRECTION TO ROTATION     7.595E-06   AT NODE        109   DOF  5
   INSTANCE: PART-1-1                                                                        
          MOMENT    EQUILIBRIUM NOT ACHIEVED WITHIN TOLERANCE.

  NUMBER OF EQUATIONS =      1143     NUMBER OF RHS =    1
  NUMBER OF FLOATING PT. OPERATIONS =  2.15E+06

     CHECK POINT   START OF SOLVER    

     CHECK POINT  END OF SOLVER       

       ELAPSED USER TIME (SEC)      =  1.00000E-02
       ELAPSED SYSTEM TIME (SEC)    =   0.0000    
       ELAPSED TOTAL CPU TIME (SEC) =  1.00000E-02
       ELAPSED WALLCLOCK TIME (SEC) =          0

               CONVERGENCE CHECKS FOR EQUILIBRIUM ITERATION     5


 AVERAGE FORCE                      4.259E-08   TIME AVG. FORCE       1.000E-02
 LARGEST RESIDUAL FORCE            -1.947E-07   AT NODE          1   DOF  2
   INSTANCE: REFPOINT-0                                                                      
 LARGEST INCREMENT OF DISP.        -0.473       AT NODE        189   DOF  3
   INSTANCE: PART-1-1                                                                        
 LARGEST CORRECTION TO DISP.        1.268E-03   AT NODE          1   DOF  3
   INSTANCE: REFPOINT-0                                                                      
          THE FORCE     IS ZERO EVERYWHERE BUT THE FORCE     RESIDUAL OR
          THE DISP.    CORRECTION IS NON-ZERO

 AVERAGE MOMENT                     2.260E-06   TIME AVG. MOMENT      1.396E-06
 LARGEST RESIDUAL MOMENT           -1.008E-11   AT NODE        182   DOF  4
   INSTANCE: PART-1-1                                                                        
 LARGEST INCREMENT OF ROTATION     -1.804E-02   AT NODE        191   DOF  4
   INSTANCE: PART-1-1                                                                        
 LARGEST CORRECTION TO ROTATION     6.063E-05   AT NODE        192   DOF  4
   INSTANCE: PART-1-1                                                                        
          THE MOMENT    EQUILIBRIUM EQUATIONS HAVE CONVERGED

  NUMBER OF EQUATIONS =      1143     NUMBER OF RHS =    1
  NUMBER OF FLOATING PT. OPERATIONS =  2.15E+06

     CHECK POINT   START OF SOLVER    

     CHECK POINT  END OF SOLVER       

       ELAPSED USER TIME (SEC)      =   0.0000    
       ELAPSED SYSTEM TIME (SEC)    =  1.00000E-02
       ELAPSED TOTAL CPU TIME (SEC) =  1.00000E-02
       ELAPSED WALLCLOCK TIME (SEC) =          0

               CONVERGENCE CHECKS FOR EQUILIBRIUM ITERATION     6


 AVERAGE FORCE                      4.223E-08   TIME AVG. FORCE       1.000E-02
 LARGEST RESIDUAL FORCE            -1.227E-12   AT NODE        175   DOF  2
   INSTANCE: PART-1-1                                                                        
 LARGEST INCREMENT OF DISP.        -0.473       AT NODE        189   DOF  3
   INSTANCE: PART-1-1                                                                        
 LARGEST CORRECTION TO DISP.       -1.363E-07   AT NODE          1   DOF  3
   INSTANCE: REFPOINT-0                                                                      
          THERE IS ZERO FORCE     EVERYWHERE
 

 ***WARNING: THERE IS ZERO FORCE EVERYWHERE IN THE MODEL BASED ON THE DEFAULT 
             CRITERION. PLEASE CHECK THE VALUE OF THE AVERAGE FORCE DURING THE 
             CURRENT ITERATION TO VERIFY THAT THE FORCE IS SMALL ENOUGH TO BE 
             TREATED AS ZERO. IF NOT, PLEASE USE THE SOLUTION CONTROLS TO RESET 
             THE CRITERION FOR ZERO FORCE.

 AVERAGE MOMENT                     2.260E-06   TIME AVG. MOMENT      1.396E-06
 LARGEST RESIDUAL MOMENT           -3.335E-14   AT NODE        188   DOF  5
   INSTANCE: PART-1-1                                                                        
 LARGEST INCREMENT OF ROTATION     -1.804E-02   AT NODE        191   DOF  4
   INSTANCE: PART-1-1                                                                        
 LARGEST CORRECTION TO ROTATION    -6.912E-09   AT NODE        189   DOF  4
   INSTANCE: PART-1-1                                                                        
          THE MOMENT    EQUILIBRIUM EQUATIONS HAVE CONVERGED
          TIME INCREMENT REDUCED TO   6.711E-02 TO MEET NEXT OUTPUT TIME POINT

 ITERATION SUMMARY FOR THE INCREMENT:   6 TOTAL ITERATIONS, OF WHICH
   0 ARE SEVERE DISCONTINUITY ITERATIONS AND  6 ARE EQUILIBRIUM ITERATIONS.

 TIME INCREMENT COMPLETED  7.039E-02,  FRACTION OF STEP COMPLETED  7.219E-02
 STEP TIME COMPLETED       0.144    ,  TOTAL TIME COMPLETED        0.144    


  INCREMENT     3 STARTS. ATTEMPT NUMBER  1, TIME INCREMENT  6.711E-02

  NUMBER OF EQUATIONS =      1143     NUMBER OF RHS =    1
  NUMBER OF FLOATING PT. OPERATIONS =  2.15E+06

     CHECK POINT   START OF SOLVER    

     CHECK POINT  END OF SOLVER       

       ELAPSED USER TIME (SEC)      =  1.00000E-02
       ELAPSED SYSTEM TIME (SEC)    =   0.0000    
       ELAPSED TOTAL CPU TIME (SEC) =  1.00000E-02
       ELAPSED WALLCLOCK TIME (SEC) =          0

               CONVERGENCE CHECKS FOR EQUILIBRIUM ITERATION     1


 AVERAGE FORCE                      2.086E-05   TIME AVG. FORCE       2.086E-05
 LARGEST RESIDUAL FORCE            -2.606E-03   AT NODE          1   DOF  2
   INSTANCE: REFPOINT-0                                                                      
 LARGEST INCREMENT OF DISP.        -0.598       AT NODE        189   DOF  3
   INSTANCE: PART-1-1                                                                        
 LARGEST CORRECTION TO DISP.       -0.148       AT NODE        189   DOF  3
   INSTANCE: PART-1-1                                                                        
          FORCE     EQUILIBRIUM NOT ACHIEVED WITHIN TOLERANCE.

 AVERAGE MOMENT                     1.335E-05   TIME AVG. MOMENT      5.382E-06
 LARGEST RESIDUAL MOMENT           -2.414E-04   AT NODE        186   DOF  4
   INSTANCE: PART-1-1                                                                        
 LARGEST INCREMENT OF ROTATION     -2.434E-02   AT NODE        192   DOF  4
   INSTANCE: PART-1-1                                                                        
 LARGEST CORRECTION TO ROTATION    -7.137E-03   AT NODE        192   DOF  4
   INSTANCE: PART-1-1                                                                        
          MOMENT    EQUILIBRIUM NOT ACHIEVED WITHIN TOLERANCE.

  NUMBER OF EQUATIONS =      1143     NUMBER OF RHS =    1
  NUMBER OF FLOATING PT. OPERATIONS =  2.15E+06

     CHECK POINT   START OF SOLVER    

     CHECK POINT  END OF SOLVER       

       ELAPSED USER TIME (SEC)      =  1.00000E-02
       ELAPSED SYSTEM TIME (SEC)    =   0.0000    
       ELAPSED TOTAL CPU TIME (SEC) =  1.00000E-02
       ELAPSED WALLCLOCK TIME (SEC) =          0

               CONVERGENCE CHECKS FOR EQUILIBRIUM ITERATION     2


 AVERAGE FORCE                      1.256E-07   TIME AVG. FORCE       1.256E-07
 LARGEST RESIDUAL FORCE            -4.795E-06   AT NODE          1   DOF  2
   INSTANCE: REFPOINT-0                                                                      
 LARGEST INCREMENT OF DISP.        -0.590       AT NODE        189   DOF  3
   INSTANCE: PART-1-1                                                                        
 LARGEST CORRECTION TO DISP.        8.290E-03   AT NODE        189   DOF  3
   INSTANCE: PART-1-1                                                                        
          FORCE     EQUILIBRIUM NOT ACHIEVED WITHIN TOLERANCE.

 AVERAGE MOMENT                     3.811E-06   TIME AVG. MOMENT      2.201E-06
 LARGEST RESIDUAL MOMENT            9.073E-07   AT NODE        187   DOF  4
   INSTANCE: PART-1-1                                                                        
 LARGEST INCREMENT OF ROTATION     -2.402E-02   AT NODE        192   DOF  4
   INSTANCE: PART-1-1                                                                        
 LARGEST CORRECTION TO ROTATION     3.403E-04   AT NODE        132   DOF  4
   INSTANCE: PART-1-1                                                                        
          MOMENT    EQUILIBRIUM NOT ACHIEVED WITHIN TOLERANCE.

  NUMBER OF EQUATIONS =      1143     NUMBER OF RHS =    1
  NUMBER OF FLOATING PT. OPERATIONS =  2.15E+06

     CHECK POINT   START OF SOLVER    

     CHECK POINT  END OF SOLVER       

       ELAPSED USER TIME (SEC)      =  1.00000E-02
       ELAPSED SYSTEM TIME (SEC)    =   0.0000    
       ELAPSED TOTAL CPU TIME (SEC) =  1.00000E-02
       ELAPSED WALLCLOCK TIME (SEC) =          0

               CONVERGENCE CHECKS FOR EQUILIBRIUM ITERATION     3


 AVERAGE FORCE                      1.846E-05   TIME AVG. FORCE       1.846E-05
 LARGEST RESIDUAL FORCE            -2.744E-03   AT NODE          1   DOF  2
   INSTANCE: REFPOINT-0                                                                      
 LARGEST INCREMENT OF DISP.        -0.439       AT NODE        189   DOF  3
   INSTANCE: PART-1-1                                                                        
 LARGEST CORRECTION TO DISP.        0.151       AT NODE          1   DOF  3
   INSTANCE: REFPOINT-0                                                                      
          FORCE     EQUILIBRIUM NOT ACHIEVED WITHIN TOLERANCE.

 AVERAGE MOMENT                     3.698E-06   TIME AVG. MOMENT      2.164E-06
 LARGEST RESIDUAL MOMENT           -1.461E-05   AT NODE        186   DOF  4
   INSTANCE: PART-1-1                                                                        
 LARGEST INCREMENT OF ROTATION     -1.681E-02   AT NODE        192   DOF  4
   INSTANCE: PART-1-1                                                                        
 LARGEST CORRECTION TO ROTATION     7.207E-03   AT NODE        192   DOF  4
   INSTANCE: PART-1-1                                                                        
          MOMENT    EQUILIBRIUM NOT ACHIEVED WITHIN TOLERANCE.

  NUMBER OF EQUATIONS =      1143     NUMBER OF RHS =    1
  NUMBER OF FLOATING PT. OPERATIONS =  2.15E+06

     CHECK POINT   START OF SOLVER    

     CHECK POINT  END OF SOLVER       

       ELAPSED USER TIME (SEC)      =  1.00000E-02
       ELAPSED SYSTEM TIME (SEC)    =   0.0000    
       ELAPSED TOTAL CPU TIME (SEC) =  1.00000E-02
       ELAPSED WALLCLOCK TIME (SEC) =          0

               CONVERGENCE CHECKS FOR EQUILIBRIUM ITERATION     4


 AVERAGE FORCE                      6.518E-08   TIME AVG. FORCE       1.000E-02
 LARGEST RESIDUAL FORCE            -1.330E-07   AT NODE          1   DOF  3
   INSTANCE: REFPOINT-0                                                                      
 LARGEST INCREMENT OF DISP.        -0.439       AT NODE        189   DOF  3
   INSTANCE: PART-1-1                                                                        
 LARGEST CORRECTION TO DISP.        4.200E-04   AT NODE          1   DOF  3
   INSTANCE: REFPOINT-0                                                                      
          ALL DISP.    CORRECTIONS ARE ZERO

 AVERAGE MOMENT                     3.357E-06   TIME AVG. MOMENT      2.050E-06
 LARGEST RESIDUAL MOMENT            4.376E-08   AT NODE        187   DOF  4
   INSTANCE: PART-1-1                                                                        
 LARGEST INCREMENT OF ROTATION     -1.680E-02   AT NODE        192   DOF  4
   INSTANCE: PART-1-1                                                                        
 LARGEST CORRECTION TO ROTATION     2.175E-05   AT NODE        113   DOF  5
   INSTANCE: PART-1-1                                                                        
          MOMENT    EQUILIBRIUM NOT ACHIEVED WITHIN TOLERANCE.

  NUMBER OF EQUATIONS =      1143     NUMBER OF RHS =    1
  NUMBER OF FLOATING PT. OPERATIONS =  2.15E+06

     CHECK POINT   START OF SOLVER    

     CHECK POINT  END OF SOLVER       

       ELAPSED USER TIME (SEC)      =   0.0000    
       ELAPSED SYSTEM TIME (SEC)    =   0.0000    
       ELAPSED TOTAL CPU TIME (SEC) =   0.0000    
       ELAPSED WALLCLOCK TIME (SEC) =          0

               CONVERGENCE CHECKS FOR EQUILIBRIUM ITERATION     5


 AVERAGE FORCE                      1.054E-07   TIME AVG. FORCE       1.054E-07
 LARGEST RESIDUAL FORCE            -6.863E-06   AT NODE          1   DOF  2
   INSTANCE: REFPOINT-0                                                                      
 LARGEST INCREMENT OF DISP.        -0.431       AT NODE        189   DOF  3
   INSTANCE: PART-1-1                                                                        
 LARGEST CORRECTION TO DISP.        7.609E-03   AT NODE          1   DOF  3
   INSTANCE: REFPOINT-0                                                                      
          FORCE     EQUILIBRIUM NOT ACHIEVED WITHIN TOLERANCE.

 AVERAGE MOMENT                     3.329E-06   TIME AVG. MOMENT      2.041E-06
 LARGEST RESIDUAL MOMENT           -1.875E-09   AT NODE        186   DOF  4
   INSTANCE: PART-1-1                                                                        
 LARGEST INCREMENT OF ROTATION     -1.644E-02   AT NODE        190   DOF  4
   INSTANCE: PART-1-1                                                                        
 LARGEST CORRECTION TO ROTATION     3.601E-04   AT NODE        192   DOF  4
   INSTANCE: PART-1-1                                                                        
 ESTIMATE OF ROTATION CORRECTION   -1.543E-05
 MOMENT    EQUILIB. ACCEPTED BASED ON SMALL RESIDUAL AND ESTIMATED CORRECTION

  NUMBER OF EQUATIONS =      1143     NUMBER OF RHS =    1
  NUMBER OF FLOATING PT. OPERATIONS =  2.15E+06

     CHECK POINT   START OF SOLVER    

     CHECK POINT  END OF SOLVER       

       ELAPSED USER TIME (SEC)      =   0.0000    
       ELAPSED SYSTEM TIME (SEC)    =   0.0000    
       ELAPSED TOTAL CPU TIME (SEC) =   0.0000    
       ELAPSED WALLCLOCK TIME (SEC) =          0

               CONVERGENCE CHECKS FOR EQUILIBRIUM ITERATION     6


 AVERAGE FORCE                      6.539E-08   TIME AVG. FORCE       1.000E-02
 LARGEST RESIDUAL FORCE             5.135E-12   AT NODE          1   DOF  3
   INSTANCE: REFPOINT-0                                                                      
 LARGEST INCREMENT OF DISP.        -0.431       AT NODE        189   DOF  3
   INSTANCE: PART-1-1                                                                        
 LARGEST CORRECTION TO DISP.       -4.175E-06   AT NODE          1   DOF  3
   INSTANCE: REFPOINT-0                                                                      
          THERE IS ZERO FORCE     EVERYWHERE
 

 ***WARNING: THERE IS ZERO FORCE EVERYWHERE IN THE MODEL BASED ON THE DEFAULT 
             CRITERION. PLEASE CHECK THE VALUE OF THE AVERAGE FORCE DURING THE 
             CURRENT ITERATION TO VERIFY THAT THE FORCE IS SMALL ENOUGH TO BE 
             TREATED AS ZERO. IF NOT, PLEASE USE THE SOLUTION CONTROLS TO RESET 
             THE CRITERION FOR ZERO FORCE.

 AVERAGE MOMENT                     3.331E-06   TIME AVG. MOMENT      2.041E-06
 LARGEST RESIDUAL MOMENT           -1.626E-12   AT NODE        186   DOF  4
   INSTANCE: PART-1-1                                                                        
 LARGEST INCREMENT OF ROTATION     -1.644E-02   AT NODE        190   DOF  4
   INSTANCE: PART-1-1                                                                        
 LARGEST CORRECTION TO ROTATION    -2.160E-07   AT NODE        189   DOF  4
   INSTANCE: PART-1-1                                                                        
          THE MOMENT    EQUILIBRIUM EQUATIONS HAVE CONVERGED
          TIME INCREMENT REDUCED TO   6.413E-02 TO MEET NEXT OUTPUT TIME POINT

 ITERATION SUMMARY FOR THE INCREMENT:   6 TOTAL ITERATIONS, OF WHICH
   0 ARE SEVERE DISCONTINUITY ITERATIONS AND  6 ARE EQUILIBRIUM ITERATIONS.

 TIME INCREMENT COMPLETED  6.711E-02,  FRACTION OF STEP COMPLETED  0.106    
 STEP TIME COMPLETED       0.212    ,  TOTAL TIME COMPLETED        0.212    


  INCREMENT     4 STARTS. ATTEMPT NUMBER  1, TIME INCREMENT  6.413E-02

  NUMBER OF EQUATIONS =      1143     NUMBER OF RHS =    1
  NUMBER OF FLOATING PT. OPERATIONS =  2.15E+06

     CHECK POINT   START OF SOLVER    

     CHECK POINT  END OF SOLVER       

       ELAPSED USER TIME (SEC)      =   0.0000    
       ELAPSED SYSTEM TIME (SEC)    =   0.0000    
       ELAPSED TOTAL CPU TIME (SEC) =   0.0000    
       ELAPSED WALLCLOCK TIME (SEC) =          0

               CONVERGENCE CHECKS FOR EQUILIBRIUM ITERATION     1


 AVERAGE FORCE                      9.293E-06   TIME AVG. FORCE       9.293E-06
 LARGEST RESIDUAL FORCE            -1.074E-03   AT NODE          1   DOF  2
   INSTANCE: REFPOINT-0                                                                      
 LARGEST INCREMENT OF DISP.        -0.508       AT NODE        189   DOF  3
   INSTANCE: PART-1-1                                                                        
 LARGEST CORRECTION TO DISP.       -9.589E-02   AT NODE        189   DOF  3
   INSTANCE: PART-1-1                                                                        
          FORCE     EQUILIBRIUM NOT ACHIEVED WITHIN TOLERANCE.

 AVERAGE MOMENT                     9.631E-06   TIME AVG. MOMENT      3.939E-06
 LARGEST RESIDUAL MOMENT           -1.336E-04   AT NODE        186   DOF  4
   INSTANCE: PART-1-1                                                                        
 LARGEST INCREMENT OF ROTATION     -2.032E-02   AT NODE        192   DOF  4
   INSTANCE: PART-1-1                                                                        
 LARGEST CORRECTION TO ROTATION    -4.614E-03   AT NODE        192   DOF  4
   INSTANCE: PART-1-1                                                                        
          MOMENT    EQUILIBRIUM NOT ACHIEVED WITHIN TOLERANCE.

  NUMBER OF EQUATIONS =      1143     NUMBER OF RHS =    1
  NUMBER OF FLOATING PT. OPERATIONS =  2.15E+06

     CHECK POINT   START OF SOLVER    

     CHECK POINT  END OF SOLVER       

       ELAPSED USER TIME (SEC)      =   0.0000    
       ELAPSED SYSTEM TIME (SEC)    =  1.00000E-02
       ELAPSED TOTAL CPU TIME (SEC) =  1.00000E-02
       ELAPSED WALLCLOCK TIME (SEC) =          0

               CONVERGENCE CHECKS FOR EQUILIBRIUM ITERATION     2


 AVERAGE FORCE                      1.742E-07   TIME AVG. FORCE       1.742E-07
 LARGEST RESIDUAL FORCE            -1.069E-05   AT NODE          1   DOF  2
   INSTANCE: REFPOINT-0                                                                      
 LARGEST INCREMENT OF DISP.        -0.496       AT NODE        189   DOF  3
   INSTANCE: PART-1-1                                                                        
 LARGEST CORRECTION TO DISP.        1.118E-02   AT NODE          1   DOF  3
   INSTANCE: REFPOINT-0                                                                      
          FORCE     EQUILIBRIUM NOT ACHIEVED WITHIN TOLERANCE.

 AVERAGE MOMENT                     4.617E-06   TIME AVG. MOMENT      2.685E-06
 LARGEST RESIDUAL MOMENT            5.521E-07   AT NODE        187   DOF  4
   INSTANCE: PART-1-1                                                                        
 LARGEST INCREMENT OF ROTATION     -1.987E-02   AT NODE        192   DOF  4
   INSTANCE: PART-1-1                                                                        
 LARGEST CORRECTION TO ROTATION     4.588E-04   AT NODE        152   DOF  4
   INSTANCE: PART-1-1                                                                        
          MOMENT    EQUILIBRIUM NOT ACHIEVED WITHIN TOLERANCE.

  NUMBER OF EQUATIONS =      1143     NUMBER OF RHS =    1
  NUMBER OF FLOATING PT. OPERATIONS =  2.15E+06

     CHECK POINT   START OF SOLVER    

     CHECK POINT  END OF SOLVER       

       ELAPSED USER TIME (SEC)      =   0.0000    
       ELAPSED SYSTEM TIME (SEC)    =   0.0000    
       ELAPSED TOTAL CPU TIME (SEC) =   0.0000    
       ELAPSED WALLCLOCK TIME (SEC) =          0

               CONVERGENCE CHECKS FOR EQUILIBRIUM ITERATION     3


 AVERAGE FORCE                      5.921E-06   TIME AVG. FORCE       5.921E-06
 LARGEST RESIDUAL FORCE            -8.730E-04   AT NODE          1   DOF  2
   INSTANCE: REFPOINT-0                                                                      
 LARGEST INCREMENT OF DISP.        -0.412       AT NODE        189   DOF  3
   INSTANCE: PART-1-1                                                                        
 LARGEST CORRECTION TO DISP.        8.444E-02   AT NODE        189   DOF  3
   INSTANCE: PART-1-1                                                                        
          FORCE     EQUILIBRIUM NOT ACHIEVED WITHIN TOLERANCE.

 AVERAGE MOMENT                     4.396E-06   TIME AVG. MOMENT      2.630E-06
 LARGEST RESIDUAL MOMENT           -2.589E-06   AT NODE        186   DOF  4
   INSTANCE: PART-1-1                                                                        
 LARGEST INCREMENT OF ROTATION     -1.580E-02   AT NODE        192   DOF  4
   INSTANCE: PART-1-1                                                                        
 LARGEST CORRECTION TO ROTATION     4.066E-03   AT NODE        192   DOF  4
   INSTANCE: PART-1-1                                                                        
          MOMENT    EQUILIBRIUM NOT ACHIEVED WITHIN TOLERANCE.

  NUMBER OF EQUATIONS =      1143     NUMBER OF RHS =    1
  NUMBER OF FLOATING PT. OPERATIONS =  2.15E+06

     CHECK POINT   START OF SOLVER    

     CHECK POINT  END OF SOLVER       

       ELAPSED USER TIME (SEC)      =  1.00000E-02
       ELAPSED SYSTEM TIME (SEC)    =   0.0000    
       ELAPSED TOTAL CPU TIME (SEC) =  1.00000E-02
       ELAPSED WALLCLOCK TIME (SEC) =          0

               CONVERGENCE CHECKS FOR EQUILIBRIUM ITERATION     4


 AVERAGE FORCE                      8.847E-08   TIME AVG. FORCE       1.000E-02
 LARGEST RESIDUAL FORCE            -1.414E-07   AT NODE          1   DOF  3
   INSTANCE: REFPOINT-0                                                                      
 LARGEST INCREMENT OF DISP.        -0.411       AT NODE        189   DOF  3
   INSTANCE: PART-1-1                                                                        
 LARGEST CORRECTION TO DISP.        1.176E-03   AT NODE        189   DOF  3
   INSTANCE: PART-1-1                                                                        
          THE FORCE     IS ZERO EVERYWHERE BUT THE FORCE     RESIDUAL OR
          THE DISP.    CORRECTION IS NON-ZERO

 AVERAGE MOMENT                     4.361E-06   TIME AVG. MOMENT      2.621E-06
 LARGEST RESIDUAL MOMENT            4.803E-08   AT NODE        187   DOF  4
   INSTANCE: PART-1-1                                                                        
 LARGEST INCREMENT OF ROTATION     -1.575E-02   AT NODE        191   DOF  4
   INSTANCE: PART-1-1                                                                        
 LARGEST CORRECTION TO ROTATION     5.007E-05   AT NODE        192   DOF  4
   INSTANCE: PART-1-1                                                                        
          MOMENT    EQUILIBRIUM NOT ACHIEVED WITHIN TOLERANCE.

  NUMBER OF EQUATIONS =      1143     NUMBER OF RHS =    1
  NUMBER OF FLOATING PT. OPERATIONS =  2.15E+06

     CHECK POINT   START OF SOLVER    

     CHECK POINT  END OF SOLVER       

       ELAPSED USER TIME (SEC)      =   0.0000    
       ELAPSED SYSTEM TIME (SEC)    =   0.0000    
       ELAPSED TOTAL CPU TIME (SEC) =   0.0000    
       ELAPSED WALLCLOCK TIME (SEC) =          0

               CONVERGENCE CHECKS FOR EQUILIBRIUM ITERATION     5


 AVERAGE FORCE                      1.295E-07   TIME AVG. FORCE       1.295E-07
 LARGEST RESIDUAL FORCE            -7.396E-06   AT NODE          1   DOF  2
   INSTANCE: REFPOINT-0                                                                      
 LARGEST INCREMENT OF DISP.        -0.403       AT NODE        189   DOF  3
   INSTANCE: PART-1-1                                                                        
 LARGEST CORRECTION TO DISP.        7.748E-03   AT NODE          1   DOF  3
   INSTANCE: REFPOINT-0                                                                      
          FORCE     EQUILIBRIUM NOT ACHIEVED WITHIN TOLERANCE.

 AVERAGE MOMENT                     4.330E-06   TIME AVG. MOMENT      2.614E-06
 LARGEST RESIDUAL MOMENT           -2.002E-09   AT NODE        186   DOF  4
   INSTANCE: PART-1-1                                                                        
 LARGEST INCREMENT OF ROTATION     -1.538E-02   AT NODE        190   DOF  4
   INSTANCE: PART-1-1                                                                        
 LARGEST CORRECTION TO ROTATION     3.739E-04   AT NODE        192   DOF  4
   INSTANCE: PART-1-1                                                                        
 ESTIMATE OF ROTATION CORRECTION   -1.559E-05
 MOMENT    EQUILIB. ACCEPTED BASED ON SMALL RESIDUAL AND ESTIMATED CORRECTION

  NUMBER OF EQUATIONS =      1143     NUMBER OF RHS =    1
  NUMBER OF FLOATING PT. OPERATIONS =  2.15E+06

     CHECK POINT   START OF SOLVER    

     CHECK POINT  END OF SOLVER       

       ELAPSED USER TIME (SEC)      =   0.0000    
       ELAPSED SYSTEM TIME (SEC)    =   0.0000    
       ELAPSED TOTAL CPU TIME (SEC) =   0.0000    
       ELAPSED WALLCLOCK TIME (SEC) =          0

               CONVERGENCE CHECKS FOR EQUILIBRIUM ITERATION     6


 AVERAGE FORCE                      8.848E-08   TIME AVG. FORCE       1.000E-02
 LARGEST RESIDUAL FORCE            -9.699E-12   AT NODE          1   DOF  3
   INSTANCE: REFPOINT-0                                                                      
 LARGEST INCREMENT OF DISP.        -0.403       AT NODE        189   DOF  3
   INSTANCE: PART-1-1                                                                        
 LARGEST CORRECTION TO DISP.        8.397E-06   AT NODE          1   DOF  3
   INSTANCE: REFPOINT-0                                                                      
          THERE IS ZERO FORCE     EVERYWHERE
 

 ***WARNING: THERE IS ZERO FORCE EVERYWHERE IN THE MODEL BASED ON THE DEFAULT 
             CRITERION. PLEASE CHECK THE VALUE OF THE AVERAGE FORCE DURING THE 
             CURRENT ITERATION TO VERIFY THAT THE FORCE IS SMALL ENOUGH TO BE 
             TREATED AS ZERO. IF NOT, PLEASE USE THE SOLUTION CONTROLS TO RESET 
             THE CRITERION FOR ZERO FORCE.

 AVERAGE MOMENT                     4.331E-06   TIME AVG. MOMENT      2.614E-06
 LARGEST RESIDUAL MOMENT            3.255E-12   AT NODE        186   DOF  4
   INSTANCE: PART-1-1                                                                        
 LARGEST INCREMENT OF ROTATION     -1.538E-02   AT NODE        190   DOF  4
   INSTANCE: PART-1-1                                                                        
 LARGEST CORRECTION TO ROTATION     3.963E-07   AT NODE        192   DOF  4
   INSTANCE: PART-1-1                                                                        
          THE MOMENT    EQUILIBRIUM EQUATIONS HAVE CONVERGED
          TIME INCREMENT REDUCED TO   6.140E-02 TO MEET NEXT OUTPUT TIME POINT

 ITERATION SUMMARY FOR THE INCREMENT:   6 TOTAL ITERATIONS, OF WHICH
   0 ARE SEVERE DISCONTINUITY ITERATIONS AND  6 ARE EQUILIBRIUM ITERATIONS.

 TIME INCREMENT COMPLETED  6.413E-02,  FRACTION OF STEP COMPLETED  0.138    
 STEP TIME COMPLETED       0.276    ,  TOTAL TIME COMPLETED        0.276    


  INCREMENT     5 STARTS. ATTEMPT NUMBER  1, TIME INCREMENT  6.140E-02

  NUMBER OF EQUATIONS =      1143     NUMBER OF RHS =    1
  NUMBER OF FLOATING PT. OPERATIONS =  2.15E+06

     CHECK POINT   START OF SOLVER    

     CHECK POINT  END OF SOLVER       

       ELAPSED USER TIME (SEC)      =   0.0000    
       ELAPSED SYSTEM TIME (SEC)    =   0.0000    
       ELAPSED TOTAL CPU TIME (SEC) =   0.0000    
       ELAPSED WALLCLOCK TIME (SEC) =          0

               CONVERGENCE CHECKS FOR EQUILIBRIUM ITERATION     1


 AVERAGE FORCE                      5.684E-06   TIME AVG. FORCE       5.684E-06
 LARGEST RESIDUAL FORCE            -6.123E-04   AT NODE          1   DOF  2
   INSTANCE: REFPOINT-0                                                                      
 LARGEST INCREMENT OF DISP.        -0.460       AT NODE        189   DOF  3
   INSTANCE: PART-1-1                                                                        
 LARGEST CORRECTION TO DISP.       -7.367E-02   AT NODE          1   DOF  3
   INSTANCE: REFPOINT-0                                                                      
          FORCE     EQUILIBRIUM NOT ACHIEVED WITHIN TOLERANCE.

 AVERAGE MOMENT                     8.728E-06   TIME AVG. MOMENT      3.837E-06
 LARGEST RESIDUAL MOMENT           -9.005E-05   AT NODE        186   DOF  4
   INSTANCE: PART-1-1                                                                        
 LARGEST INCREMENT OF ROTATION     -1.823E-02   AT NODE        192   DOF  4
   INSTANCE: PART-1-1                                                                        
 LARGEST CORRECTION TO ROTATION    -3.509E-03   AT NODE        192   DOF  4
   INSTANCE: PART-1-1                                                                        
          MOMENT    EQUILIBRIUM NOT ACHIEVED WITHIN TOLERANCE.

  NUMBER OF EQUATIONS =      1143     NUMBER OF RHS =    1
  NUMBER OF FLOATING PT. OPERATIONS =  2.15E+06

     CHECK POINT   START OF SOLVER    

     CHECK POINT  END OF SOLVER       

       ELAPSED USER TIME (SEC)      =   0.0000    
       ELAPSED SYSTEM TIME (SEC)    =   0.0000    
       ELAPSED TOTAL CPU TIME (SEC) =   0.0000    
       ELAPSED WALLCLOCK TIME (SEC) =          0

               CONVERGENCE CHECKS FOR EQUILIBRIUM ITERATION     2


 AVERAGE FORCE                      2.202E-07   TIME AVG. FORCE       2.202E-07
 LARGEST RESIDUAL FORCE            -1.502E-05   AT NODE          1   DOF  2
   INSTANCE: REFPOINT-0                                                                      
 LARGEST INCREMENT OF DISP.        -0.447       AT NODE        189   DOF  3
   INSTANCE: PART-1-1                                                                        
 LARGEST CORRECTION TO DISP.        1.253E-02   AT NODE        189   DOF  3
   INSTANCE: PART-1-1                                                                        
          FORCE     EQUILIBRIUM NOT ACHIEVED WITHIN TOLERANCE.

 AVERAGE MOMENT                     5.480E-06   TIME AVG. MOMENT      3.187E-06
 LARGEST RESIDUAL MOMENT            3.740E-07   AT NODE        187   DOF  4
   INSTANCE: PART-1-1                                                                        
 LARGEST INCREMENT OF ROTATION     -1.769E-02   AT NODE        192   DOF  4
   INSTANCE: PART-1-1                                                                        
 LARGEST CORRECTION TO ROTATION     5.351E-04   AT NODE        192   DOF  4
   INSTANCE: PART-1-1                                                                        
          MOMENT    EQUILIBRIUM NOT ACHIEVED WITHIN TOLERANCE.

  NUMBER OF EQUATIONS =      1143     NUMBER OF RHS =    1
  NUMBER OF FLOATING PT. OPERATIONS =  2.15E+06

     CHECK POINT   START OF SOLVER    

     CHECK POINT  END OF SOLVER       

       ELAPSED USER TIME (SEC)      =  1.00000E-02
       ELAPSED SYSTEM TIME (SEC)    =   0.0000    
       ELAPSED TOTAL CPU TIME (SEC) =  1.00000E-02
       ELAPSED WALLCLOCK TIME (SEC) =          0

               CONVERGENCE CHECKS FOR EQUILIBRIUM ITERATION     3


 AVERAGE FORCE                      2.556E-06   TIME AVG. FORCE       2.556E-06
 LARGEST RESIDUAL FORCE            -3.674E-04   AT NODE          1   DOF  2
   INSTANCE: REFPOINT-0                                                                      
 LARGEST INCREMENT OF DISP.        -0.393       AT NODE        189   DOF  3
   INSTANCE: PART-1-1                                                                        
 LARGEST CORRECTION TO DISP.        5.456E-02   AT NODE        189   DOF  3
   INSTANCE: PART-1-1                                                                        
          FORCE     EQUILIBRIUM NOT ACHIEVED WITHIN TOLERANCE.

 AVERAGE MOMENT                     5.310E-06   TIME AVG. MOMENT      3.153E-06
 LARGEST RESIDUAL MOMENT           -6.795E-07   AT NODE        186   DOF  4
   INSTANCE: PART-1-1                                                                        
 LARGEST INCREMENT OF ROTATION     -1.506E-02   AT NODE        192   DOF  4
   INSTANCE: PART-1-1                                                                        
 LARGEST CORRECTION TO ROTATION     2.639E-03   AT NODE        192   DOF  4
   INSTANCE: PART-1-1                                                                        
          MOMENT    EQUILIBRIUM NOT ACHIEVED WITHIN TOLERANCE.

  NUMBER OF EQUATIONS =      1143     NUMBER OF RHS =    1
  NUMBER OF FLOATING PT. OPERATIONS =  2.15E+06

     CHECK POINT   START OF SOLVER    

     CHECK POINT  END OF SOLVER       

       ELAPSED USER TIME (SEC)      =  1.00000E-02
       ELAPSED SYSTEM TIME (SEC)    =   0.0000    
       ELAPSED TOTAL CPU TIME (SEC) =  1.00000E-02
       ELAPSED WALLCLOCK TIME (SEC) =          0

               CONVERGENCE CHECKS FOR EQUILIBRIUM ITERATION     4


 AVERAGE FORCE                      1.127E-07   TIME AVG. FORCE       1.127E-07
 LARGEST RESIDUAL FORCE            -4.320E-07   AT NODE          1   DOF  2
   INSTANCE: REFPOINT-0                                                                      
 LARGEST INCREMENT OF DISP.        -0.391       AT NODE        189   DOF  3
   INSTANCE: PART-1-1                                                                        
 LARGEST CORRECTION TO DISP.        1.957E-03   AT NODE        189   DOF  3
   INSTANCE: PART-1-1                                                                        
          FORCE     EQUILIBRIUM NOT ACHIEVED WITHIN TOLERANCE.

 AVERAGE MOMENT                     5.307E-06   TIME AVG. MOMENT      3.152E-06
 LARGEST RESIDUAL MOMENT            3.669E-08   AT NODE        187   DOF  4
   INSTANCE: PART-1-1                                                                        
 LARGEST INCREMENT OF ROTATION     -1.497E-02   AT NODE        190   DOF  4
   INSTANCE: PART-1-1                                                                        
 LARGEST CORRECTION TO ROTATION     8.998E-05   AT NODE        192   DOF  4
   INSTANCE: PART-1-1                                                                        
          MOMENT    EQUILIBRIUM NOT ACHIEVED WITHIN TOLERANCE.

  NUMBER OF EQUATIONS =      1143     NUMBER OF RHS =    1
  NUMBER OF FLOATING PT. OPERATIONS =  2.15E+06

     CHECK POINT   START OF SOLVER    

     CHECK POINT  END OF SOLVER       

       ELAPSED USER TIME (SEC)      =  1.00000E-02
       ELAPSED SYSTEM TIME (SEC)    =   0.0000    
       ELAPSED TOTAL CPU TIME (SEC) =  1.00000E-02
       ELAPSED WALLCLOCK TIME (SEC) =          0

               CONVERGENCE CHECKS FOR EQUILIBRIUM ITERATION     5


 AVERAGE FORCE                      1.309E-07   TIME AVG. FORCE       1.309E-07
 LARGEST RESIDUAL FORCE            -3.896E-06   AT NODE          1   DOF  2
   INSTANCE: REFPOINT-0                                                                      
 LARGEST INCREMENT OF DISP.        -0.385       AT NODE        189   DOF  3
   INSTANCE: PART-1-1                                                                        
 LARGEST CORRECTION TO DISP.        5.575E-03   AT NODE        189   DOF  3
   INSTANCE: PART-1-1                                                                        
          FORCE     EQUILIBRIUM NOT ACHIEVED WITHIN TOLERANCE.

 AVERAGE MOMENT                     5.287E-06   TIME AVG. MOMENT      3.148E-06
 LARGEST RESIDUAL MOMENT           -6.576E-10   AT NODE        187   DOF  4
   INSTANCE: PART-1-1                                                                        
 LARGEST INCREMENT OF ROTATION     -1.469E-02   AT NODE        190   DOF  4
   INSTANCE: PART-1-1                                                                        
 LARGEST CORRECTION TO ROTATION     2.715E-04   AT NODE        192   DOF  4
   INSTANCE: PART-1-1                                                                        
 ESTIMATE OF ROTATION CORRECTION   -4.866E-06
 MOMENT    EQUILIB. ACCEPTED BASED ON SMALL RESIDUAL AND ESTIMATED CORRECTION

  NUMBER OF EQUATIONS =      1143     NUMBER OF RHS =    1
  NUMBER OF FLOATING PT. OPERATIONS =  2.15E+06

     CHECK POINT   START OF SOLVER    

     CHECK POINT  END OF SOLVER       

       ELAPSED USER TIME (SEC)      =   0.0000    
       ELAPSED SYSTEM TIME (SEC)    =   0.0000    
       ELAPSED TOTAL CPU TIME (SEC) =   0.0000    
       ELAPSED WALLCLOCK TIME (SEC) =          0

               CONVERGENCE CHECKS FOR EQUILIBRIUM ITERATION     6


 AVERAGE FORCE                      1.118E-07   TIME AVG. FORCE       1.118E-07
 LARGEST RESIDUAL FORCE            -4.748E-11   AT NODE          1   DOF  2
   INSTANCE: REFPOINT-0                                                                      
 LARGEST INCREMENT OF DISP.        -0.385       AT NODE        189   DOF  3
   INSTANCE: PART-1-1                                                                        
 LARGEST CORRECTION TO DISP.        1.948E-05   AT NODE        189   DOF  3
   INSTANCE: PART-1-1                                                                        
          THE FORCE     EQUILIBRIUM EQUATIONS HAVE CONVERGED

 AVERAGE MOMENT                     5.287E-06   TIME AVG. MOMENT      3.148E-06
 LARGEST RESIDUAL MOMENT            4.086E-12   AT NODE        187   DOF  4
   INSTANCE: PART-1-1                                                                        
 LARGEST INCREMENT OF ROTATION     -1.469E-02   AT NODE        190   DOF  4
   INSTANCE: PART-1-1                                                                        
 LARGEST CORRECTION TO ROTATION     9.429E-07   AT NODE        192   DOF  4
   INSTANCE: PART-1-1                                                                        
          THE MOMENT    EQUILIBRIUM EQUATIONS HAVE CONVERGED
          TIME INCREMENT REDUCED TO   5.889E-02 TO MEET NEXT OUTPUT TIME POINT

 ITERATION SUMMARY FOR THE INCREMENT:   6 TOTAL ITERATIONS, OF WHICH
   0 ARE SEVERE DISCONTINUITY ITERATIONS AND  6 ARE EQUILIBRIUM ITERATIONS.

 TIME INCREMENT COMPLETED  6.140E-02,  FRACTION OF STEP COMPLETED  0.169    
 STEP TIME COMPLETED       0.337    ,  TOTAL TIME COMPLETED        0.337    


  INCREMENT     6 STARTS. ATTEMPT NUMBER  1, TIME INCREMENT  5.889E-02

  NUMBER OF EQUATIONS =      1143     NUMBER OF RHS =    1
  NUMBER OF FLOATING PT. OPERATIONS =  2.15E+06

     CHECK POINT   START OF SOLVER    

     CHECK POINT  END OF SOLVER       

       ELAPSED USER TIME (SEC)      =   0.0000    
       ELAPSED SYSTEM TIME (SEC)    =   0.0000    
       ELAPSED TOTAL CPU TIME (SEC) =   0.0000    
       ELAPSED WALLCLOCK TIME (SEC) =          0

               CONVERGENCE CHECKS FOR EQUILIBRIUM ITERATION     1


 AVERAGE FORCE                      1.111E-05   TIME AVG. FORCE       5.613E-06
 LARGEST RESIDUAL FORCE            -3.840E-04   AT NODE          1   DOF  2
   INSTANCE: REFPOINT-0                                                                      
 LARGEST INCREMENT OF DISP.        -0.428       AT NODE        189   DOF  3
   INSTANCE: PART-1-1                                                                        
 LARGEST CORRECTION TO DISP.       -5.875E-02   AT NODE          1   DOF  3
   INSTANCE: REFPOINT-0                                                                      
          FORCE     EQUILIBRIUM NOT ACHIEVED WITHIN TOLERANCE.

 AVERAGE MOMENT                     8.656E-06   TIME AVG. MOMENT      4.066E-06
 LARGEST RESIDUAL MOMENT           -6.631E-05   AT NODE        186   DOF  4
   INSTANCE: PART-1-1                                                                        
 LARGEST INCREMENT OF ROTATION     -1.690E-02   AT NODE        192   DOF  4
   INSTANCE: PART-1-1                                                                        
 LARGEST CORRECTION TO ROTATION    -2.806E-03   AT NODE        192   DOF  4
   INSTANCE: PART-1-1                                                                        
          MOMENT    EQUILIBRIUM NOT ACHIEVED WITHIN TOLERANCE.

  NUMBER OF EQUATIONS =      1143     NUMBER OF RHS =    1
  NUMBER OF FLOATING PT. OPERATIONS =  2.15E+06

     CHECK POINT   START OF SOLVER    

     CHECK POINT  END OF SOLVER       

       ELAPSED USER TIME (SEC)      =   0.0000    
       ELAPSED SYSTEM TIME (SEC)    =   0.0000    
       ELAPSED TOTAL CPU TIME (SEC) =   0.0000    
       ELAPSED WALLCLOCK TIME (SEC) =          0

               CONVERGENCE CHECKS FOR EQUILIBRIUM ITERATION     2


 AVERAGE FORCE                      8.184E-07   TIME AVG. FORCE       4.651E-07
 LARGEST RESIDUAL FORCE            -2.053E-05   AT NODE          1   DOF  2
   INSTANCE: REFPOINT-0                                                                      
 LARGEST INCREMENT OF DISP.        -0.414       AT NODE        189   DOF  3
   INSTANCE: PART-1-1                                                                        
 LARGEST CORRECTION TO DISP.        1.417E-02   AT NODE        189   DOF  3
   INSTANCE: PART-1-1                                                                        
          FORCE     EQUILIBRIUM NOT ACHIEVED WITHIN TOLERANCE.

 AVERAGE MOMENT                     6.347E-06   TIME AVG. MOMENT      3.681E-06
 LARGEST RESIDUAL MOMENT            2.740E-07   AT NODE        187   DOF  4
   INSTANCE: PART-1-1                                                                        
 LARGEST INCREMENT OF ROTATION     -1.628E-02   AT NODE        192   DOF  4
   INSTANCE: PART-1-1                                                                        
 LARGEST CORRECTION TO ROTATION     6.241E-04   AT NODE        185   DOF  4
   INSTANCE: PART-1-1                                                                        
          MOMENT    EQUILIBRIUM NOT ACHIEVED WITHIN TOLERANCE.

  NUMBER OF EQUATIONS =      1143     NUMBER OF RHS =    1
  NUMBER OF FLOATING PT. OPERATIONS =  2.15E+06

     CHECK POINT   START OF SOLVER    

     CHECK POINT  END OF SOLVER       

       ELAPSED USER TIME (SEC)      =  1.00000E-02
       ELAPSED SYSTEM TIME (SEC)    =   0.0000    
       ELAPSED TOTAL CPU TIME (SEC) =  1.00000E-02
       ELAPSED WALLCLOCK TIME (SEC) =          0

               CONVERGENCE CHECKS FOR EQUILIBRIUM ITERATION     3


 AVERAGE FORCE                      3.977E-06   TIME AVG. FORCE       2.045E-06
 LARGEST RESIDUAL FORCE            -1.812E-04   AT NODE          1   DOF  2
   INSTANCE: REFPOINT-0                                                                      
 LARGEST INCREMENT OF DISP.        -0.376       AT NODE        189   DOF  3
   INSTANCE: PART-1-1                                                                        
 LARGEST CORRECTION TO DISP.        3.815E-02   AT NODE        189   DOF  3
   INSTANCE: PART-1-1                                                                        
          FORCE     EQUILIBRIUM NOT ACHIEVED WITHIN TOLERANCE.

 AVERAGE MOMENT                     6.224E-06   TIME AVG. MOMENT      3.661E-06
 LARGEST RESIDUAL MOMENT           -2.100E-07   AT NODE        186   DOF  4
   INSTANCE: PART-1-1                                                                        
 LARGEST INCREMENT OF ROTATION     -1.442E-02   AT NODE        191   DOF  4
   INSTANCE: PART-1-1                                                                        
 LARGEST CORRECTION TO ROTATION     1.855E-03   AT NODE        192   DOF  4
   INSTANCE: PART-1-1                                                                        
          MOMENT    EQUILIBRIUM NOT ACHIEVED WITHIN TOLERANCE.

  NUMBER OF EQUATIONS =      1143     NUMBER OF RHS =    1
  NUMBER OF FLOATING PT. OPERATIONS =  2.15E+06

     CHECK POINT   START OF SOLVER    

     CHECK POINT  END OF SOLVER       

       ELAPSED USER TIME (SEC)      =  1.00000E-02
       ELAPSED SYSTEM TIME (SEC)    =   0.0000    
       ELAPSED TOTAL CPU TIME (SEC) =  1.00000E-02
       ELAPSED WALLCLOCK TIME (SEC) =          0

               CONVERGENCE CHECKS FOR EQUILIBRIUM ITERATION     4


 AVERAGE FORCE                      4.163E-07   TIME AVG. FORCE       2.641E-07
 LARGEST RESIDUAL FORCE            -9.799E-07   AT NODE          1   DOF  2
   INSTANCE: REFPOINT-0                                                                      
 LARGEST INCREMENT OF DISP.        -0.373       AT NODE        189   DOF  3
   INSTANCE: PART-1-1                                                                        
 LARGEST CORRECTION TO DISP.        2.862E-03   AT NODE        189   DOF  3
   INSTANCE: PART-1-1                                                                        
          FORCE     EQUILIBRIUM NOT ACHIEVED WITHIN TOLERANCE.

 AVERAGE MOMENT                     6.220E-06   TIME AVG. MOMENT      3.660E-06
 LARGEST RESIDUAL MOMENT            2.732E-08   AT NODE        187   DOF  4
   INSTANCE: PART-1-1                                                                        
 LARGEST INCREMENT OF ROTATION     -1.429E-02   AT NODE        190   DOF  4
   INSTANCE: PART-1-1                                                                        
 LARGEST CORRECTION TO ROTATION     1.359E-04   AT NODE        192   DOF  4
   INSTANCE: PART-1-1                                                                        
          MOMENT    EQUILIBRIUM NOT ACHIEVED WITHIN TOLERANCE.

  NUMBER OF EQUATIONS =      1143     NUMBER OF RHS =    1
  NUMBER OF FLOATING PT. OPERATIONS =  2.15E+06

     CHECK POINT   START OF SOLVER    

     CHECK POINT  END OF SOLVER       

       ELAPSED USER TIME (SEC)      =   0.0000    
       ELAPSED SYSTEM TIME (SEC)    =   0.0000    
       ELAPSED TOTAL CPU TIME (SEC) =   0.0000    
       ELAPSED WALLCLOCK TIME (SEC) =          0

               CONVERGENCE CHECKS FOR EQUILIBRIUM ITERATION     5


 AVERAGE FORCE                      4.322E-07   TIME AVG. FORCE       2.720E-07
 LARGEST RESIDUAL FORCE            -2.040E-06   AT NODE          1   DOF  2
   INSTANCE: REFPOINT-0                                                                      
 LARGEST INCREMENT OF DISP.        -0.369       AT NODE        189   DOF  3
   INSTANCE: PART-1-1                                                                        
 LARGEST CORRECTION TO DISP.        4.014E-03   AT NODE          1   DOF  3
   INSTANCE: REFPOINT-0                                                                      
          FORCE     EQUILIBRIUM NOT ACHIEVED WITHIN TOLERANCE.

 AVERAGE MOMENT                     6.204E-06   TIME AVG. MOMENT      3.658E-06
 LARGEST RESIDUAL MOMENT           -8.673E-11   AT NODE        179   DOF  4
   INSTANCE: PART-1-1                                                                        
 LARGEST INCREMENT OF ROTATION     -1.409E-02   AT NODE        190   DOF  4
   INSTANCE: PART-1-1                                                                        
 LARGEST CORRECTION TO ROTATION     1.966E-04   AT NODE        192   DOF  4
   INSTANCE: PART-1-1                                                                        
 ESTIMATE OF ROTATION CORRECTION   -6.240E-07
 MOMENT    EQUILIB. ACCEPTED BASED ON SMALL RESIDUAL AND ESTIMATED CORRECTION

  NUMBER OF EQUATIONS =      1143     NUMBER OF RHS =    1
  NUMBER OF FLOATING PT. OPERATIONS =  2.15E+06

     CHECK POINT   START OF SOLVER    

     CHECK POINT  END OF SOLVER       

       ELAPSED USER TIME (SEC)      =   0.0000    
       ELAPSED SYSTEM TIME (SEC)    =   0.0000    
       ELAPSED TOTAL CPU TIME (SEC) =   0.0000    
       ELAPSED WALLCLOCK TIME (SEC) =          0

               CONVERGENCE CHECKS FOR EQUILIBRIUM ITERATION     6


 AVERAGE FORCE                      4.074E-07   TIME AVG. FORCE       2.596E-07
 LARGEST RESIDUAL FORCE            -1.238E-10   AT NODE          1   DOF  2
   INSTANCE: REFPOINT-0                                                                      
 LARGEST INCREMENT OF DISP.        -0.369       AT NODE        189   DOF  3
   INSTANCE: PART-1-1                                                                        
 LARGEST CORRECTION TO DISP.        3.122E-05   AT NODE          1   DOF  3
   INSTANCE: REFPOINT-0                                                                      
          THE FORCE     EQUILIBRIUM EQUATIONS HAVE CONVERGED

 AVERAGE MOMENT                     6.204E-06   TIME AVG. MOMENT      3.658E-06
 LARGEST RESIDUAL MOMENT            3.474E-12   AT NODE        187   DOF  4
   INSTANCE: PART-1-1                                                                        
 LARGEST INCREMENT OF ROTATION     -1.409E-02   AT NODE        190   DOF  4
   INSTANCE: PART-1-1                                                                        
 LARGEST CORRECTION TO ROTATION     1.526E-06   AT NODE        192   DOF  4
   INSTANCE: PART-1-1                                                                        
          THE MOMENT    EQUILIBRIUM EQUATIONS HAVE CONVERGED
          TIME INCREMENT REDUCED TO   5.658E-02 TO MEET NEXT OUTPUT TIME POINT

 ITERATION SUMMARY FOR THE INCREMENT:   6 TOTAL ITERATIONS, OF WHICH
   0 ARE SEVERE DISCONTINUITY ITERATIONS AND  6 ARE EQUILIBRIUM ITERATIONS.

 TIME INCREMENT COMPLETED  5.889E-02,  FRACTION OF STEP COMPLETED  0.198    
 STEP TIME COMPLETED       0.396    ,  TOTAL TIME COMPLETED        0.396    


  INCREMENT     7 STARTS. ATTEMPT NUMBER  1, TIME INCREMENT  5.658E-02

  NUMBER OF EQUATIONS =      1143     NUMBER OF RHS =    1
  NUMBER OF FLOATING PT. OPERATIONS =  2.15E+06

     CHECK POINT   START OF SOLVER    

     CHECK POINT  END OF SOLVER       

       ELAPSED USER TIME (SEC)      =   0.0000    
       ELAPSED SYSTEM TIME (SEC)    =   0.0000    
       ELAPSED TOTAL CPU TIME (SEC) =   0.0000    
       ELAPSED WALLCLOCK TIME (SEC) =          0

               CONVERGENCE CHECKS FOR EQUILIBRIUM ITERATION     1


 AVERAGE FORCE                      7.587E-06   TIME AVG. FORCE       2.702E-06
 LARGEST RESIDUAL FORCE            -2.390E-04   AT NODE          1   DOF  2
   INSTANCE: REFPOINT-0                                                                      
 LARGEST INCREMENT OF DISP.        -0.401       AT NODE        189   DOF  3
   INSTANCE: PART-1-1                                                                        
 LARGEST CORRECTION TO DISP.       -4.662E-02   AT NODE          1   DOF  3
   INSTANCE: REFPOINT-0                                                                      
          FORCE     EQUILIBRIUM NOT ACHIEVED WITHIN TOLERANCE.

 AVERAGE MOMENT                     8.833E-06   TIME AVG. MOMENT      4.397E-06
 LARGEST RESIDUAL MOMENT           -4.899E-05   AT NODE        186   DOF  4
   INSTANCE: PART-1-1                                                                        
 LARGEST INCREMENT OF ROTATION     -1.578E-02   AT NODE        192   DOF  4
   INSTANCE: PART-1-1                                                                        
 LARGEST CORRECTION TO ROTATION    -2.241E-03   AT NODE        192   DOF  4
   INSTANCE: PART-1-1                                                                        
          MOMENT    EQUILIBRIUM NOT ACHIEVED WITHIN TOLERANCE.

  NUMBER OF EQUATIONS =      1143     NUMBER OF RHS =    1
  NUMBER OF FLOATING PT. OPERATIONS =  2.15E+06

     CHECK POINT   START OF SOLVER    

     CHECK POINT  END OF SOLVER       

       ELAPSED USER TIME (SEC)      =   0.0000    
       ELAPSED SYSTEM TIME (SEC)    =   0.0000    
       ELAPSED TOTAL CPU TIME (SEC) =   0.0000    
       ELAPSED WALLCLOCK TIME (SEC) =          0

               CONVERGENCE CHECKS FOR EQUILIBRIUM ITERATION     2


 AVERAGE FORCE                      1.021E-06   TIME AVG. FORCE       5.135E-07
 LARGEST RESIDUAL FORCE            -2.686E-05   AT NODE          1   DOF  2
   INSTANCE: REFPOINT-0                                                                      
 LARGEST INCREMENT OF DISP.        -0.385       AT NODE        189   DOF  3
   INSTANCE: PART-1-1                                                                        
 LARGEST CORRECTION TO DISP.        1.581E-02   AT NODE          1   DOF  3
   INSTANCE: REFPOINT-0                                                                      
          FORCE     EQUILIBRIUM NOT ACHIEVED WITHIN TOLERANCE.

 AVERAGE MOMENT                     7.186E-06   TIME AVG. MOMENT      4.162E-06
 LARGEST RESIDUAL MOMENT            1.922E-07   AT NODE        187   DOF  4
   INSTANCE: PART-1-1                                                                        
 LARGEST INCREMENT OF ROTATION     -1.506E-02   AT NODE        192   DOF  4
   INSTANCE: PART-1-1                                                                        
 LARGEST CORRECTION TO ROTATION     7.144E-04   AT NODE        185   DOF  4
   INSTANCE: PART-1-1                                                                        
          MOMENT    EQUILIBRIUM NOT ACHIEVED WITHIN TOLERANCE.

  NUMBER OF EQUATIONS =      1143     NUMBER OF RHS =    1
  NUMBER OF FLOATING PT. OPERATIONS =  2.15E+06

     CHECK POINT   START OF SOLVER    

     CHECK POINT  END OF SOLVER       

       ELAPSED USER TIME (SEC)      =   0.0000    
       ELAPSED SYSTEM TIME (SEC)    =   0.0000    
       ELAPSED TOTAL CPU TIME (SEC) =   0.0000    
       ELAPSED WALLCLOCK TIME (SEC) =          0

               CONVERGENCE CHECKS FOR EQUILIBRIUM ITERATION     3


 AVERAGE FORCE                      2.100E-06   TIME AVG. FORCE       8.730E-07
 LARGEST RESIDUAL FORCE            -8.475E-05   AT NODE          1   DOF  2
   INSTANCE: REFPOINT-0                                                                      
 LARGEST INCREMENT OF DISP.        -0.359       AT NODE        189   DOF  3
   INSTANCE: PART-1-1                                                                        
 LARGEST CORRECTION TO DISP.        2.598E-02   AT NODE        189   DOF  3
   INSTANCE: PART-1-1                                                                        
          FORCE     EQUILIBRIUM NOT ACHIEVED WITHIN TOLERANCE.

 AVERAGE MOMENT                     7.104E-06   TIME AVG. MOMENT      4.150E-06
 LARGEST RESIDUAL MOMENT           -4.382E-08   AT NODE        182   DOF  4
   INSTANCE: PART-1-1                                                                        
 LARGEST INCREMENT OF ROTATION     -1.379E-02   AT NODE        191   DOF  4
   INSTANCE: PART-1-1                                                                        
 LARGEST CORRECTION TO ROTATION     1.269E-03   AT NODE        192   DOF  4
   INSTANCE: PART-1-1                                                                        
          MOMENT    EQUILIBRIUM NOT ACHIEVED WITHIN TOLERANCE.

  NUMBER OF EQUATIONS =      1143     NUMBER OF RHS =    1
  NUMBER OF FLOATING PT. OPERATIONS =  2.15E+06

     CHECK POINT   START OF SOLVER    

     CHECK POINT  END OF SOLVER       

       ELAPSED USER TIME (SEC)      =  1.00000E-02
       ELAPSED SYSTEM TIME (SEC)    =   0.0000    
       ELAPSED TOTAL CPU TIME (SEC) =  1.00000E-02
       ELAPSED WALLCLOCK TIME (SEC) =          0

               CONVERGENCE CHECKS FOR EQUILIBRIUM ITERATION     4


 AVERAGE FORCE                      4.961E-07   TIME AVG. FORCE       3.384E-07
 LARGEST RESIDUAL FORCE            -1.587E-06   AT NODE          1   DOF  2
   INSTANCE: REFPOINT-0                                                                      
 LARGEST INCREMENT OF DISP.        -0.356       AT NODE        189   DOF  3
   INSTANCE: PART-1-1                                                                        
 LARGEST CORRECTION TO DISP.        3.585E-03   AT NODE          1   DOF  3
   INSTANCE: REFPOINT-0                                                                      
          FORCE     EQUILIBRIUM NOT ACHIEVED WITHIN TOLERANCE.

 AVERAGE MOMENT                     7.096E-06   TIME AVG. MOMENT      4.149E-06
 LARGEST RESIDUAL MOMENT            1.617E-08   AT NODE        187   DOF  4
   INSTANCE: PART-1-1                                                                        
 LARGEST INCREMENT OF ROTATION     -1.362E-02   AT NODE        190   DOF  4
   INSTANCE: PART-1-1                                                                        
 LARGEST CORRECTION TO ROTATION     1.733E-04   AT NODE        192   DOF  4
   INSTANCE: PART-1-1                                                                        
 ESTIMATE OF ROTATION CORRECTION   -6.394E-05
 MOMENT    EQUILIB. ACCEPTED BASED ON SMALL RESIDUAL AND ESTIMATED CORRECTION

  NUMBER OF EQUATIONS =      1143     NUMBER OF RHS =    1
  NUMBER OF FLOATING PT. OPERATIONS =  2.15E+06

     CHECK POINT   START OF SOLVER    

     CHECK POINT  END OF SOLVER       

       ELAPSED USER TIME (SEC)      =  1.00000E-02
       ELAPSED SYSTEM TIME (SEC)    =   0.0000    
       ELAPSED TOTAL CPU TIME (SEC) =  1.00000E-02
       ELAPSED WALLCLOCK TIME (SEC) =          0

               CONVERGENCE CHECKS FOR EQUILIBRIUM ITERATION     5


 AVERAGE FORCE                      4.836E-07   TIME AVG. FORCE       3.343E-07
 LARGEST RESIDUAL FORCE            -6.925E-07   AT NODE          1   DOF  2
   INSTANCE: REFPOINT-0                                                                      
 LARGEST INCREMENT OF DISP.        -0.353       AT NODE        189   DOF  3
   INSTANCE: PART-1-1                                                                        
 LARGEST CORRECTION TO DISP.        2.330E-03   AT NODE          1   DOF  3
   INSTANCE: REFPOINT-0                                                                      
          FORCE     EQUILIBRIUM NOT ACHIEVED WITHIN TOLERANCE.

 AVERAGE MOMENT                     7.093E-06   TIME AVG. MOMENT      4.148E-06
 LARGEST RESIDUAL MOMENT            1.428E-10   AT NODE        186   DOF  4
   INSTANCE: PART-1-1                                                                        
 LARGEST INCREMENT OF ROTATION     -1.351E-02   AT NODE        190   DOF  4
   INSTANCE: PART-1-1                                                                        
 LARGEST CORRECTION TO ROTATION     1.146E-04   AT NODE        192   DOF  4
   INSTANCE: PART-1-1                                                                        
          THE MOMENT    EQUILIBRIUM EQUATIONS HAVE CONVERGED

  NUMBER OF EQUATIONS =      1143     NUMBER OF RHS =    1
  NUMBER OF FLOATING PT. OPERATIONS =  2.15E+06

     CHECK POINT   START OF SOLVER    

     CHECK POINT  END OF SOLVER       

       ELAPSED USER TIME (SEC)      =   0.0000    
       ELAPSED SYSTEM TIME (SEC)    =   0.0000    
       ELAPSED TOTAL CPU TIME (SEC) =   0.0000    
       ELAPSED WALLCLOCK TIME (SEC) =          0

               CONVERGENCE CHECKS FOR EQUILIBRIUM ITERATION     6


 AVERAGE FORCE                      4.780E-07   TIME AVG. FORCE       3.324E-07
 LARGEST RESIDUAL FORCE            -1.075E-10   AT NODE          1   DOF  2
   INSTANCE: REFPOINT-0                                                                      
 LARGEST INCREMENT OF DISP.        -0.353       AT NODE        189   DOF  3
   INSTANCE: PART-1-1                                                                        
 LARGEST CORRECTION TO DISP.        2.901E-05   AT NODE          1   DOF  3
   INSTANCE: REFPOINT-0                                                                      
          THE FORCE     EQUILIBRIUM EQUATIONS HAVE CONVERGED

 AVERAGE MOMENT                     7.093E-06   TIME AVG. MOMENT      4.148E-06
 LARGEST RESIDUAL MOMENT            1.172E-12   AT NODE        186   DOF  4
[...]
 LARGEST CORRECTION TO DISP.       -3.433E-02   AT NODE        189   DOF  3
   INSTANCE: PART-1-1                                                                        
          FORCE     EQUILIBRIUM NOT ACHIEVED WITHIN TOLERANCE.

 AVERAGE MOMENT                     1.544E-05   TIME AVG. MOMENT      9.923E-06
 LARGEST RESIDUAL MOMENT           -4.572E-07   AT NODE        183   DOF  4
   INSTANCE: PART-1-1                                                                        
 LARGEST INCREMENT OF ROTATION      6.569E-04   AT NODE        190   DOF  4
   INSTANCE: PART-1-1                                                                        
 LARGEST CORRECTION TO ROTATION    -1.376E-03   AT NODE        192   DOF  4
   INSTANCE: PART-1-1                                                                        
          MOMENT    EQUILIBRIUM NOT ACHIEVED WITHIN TOLERANCE.

  NUMBER OF EQUATIONS =      1143     NUMBER OF RHS =    1
  NUMBER OF FLOATING PT. OPERATIONS =  2.15E+06

     CHECK POINT   START OF SOLVER    

     CHECK POINT  END OF SOLVER       

       ELAPSED USER TIME (SEC)      =  1.00000E-02
       ELAPSED SYSTEM TIME (SEC)    =   0.0000    
       ELAPSED TOTAL CPU TIME (SEC) =  1.00000E-02
       ELAPSED WALLCLOCK TIME (SEC) =          0

               CONVERGENCE CHECKS FOR EQUILIBRIUM ITERATION     2


 AVERAGE FORCE                      1.319E-06   TIME AVG. FORCE       8.954E-07
 LARGEST RESIDUAL FORCE             1.413E-10   AT NODE          1   DOF  2
   INSTANCE: REFPOINT-0                                                                      
 LARGEST INCREMENT OF DISP.         1.635E-02   AT NODE        189   DOF  3
   INSTANCE: PART-1-1                                                                        
 LARGEST CORRECTION TO DISP.       -2.021E-05   AT NODE        189   DOF  2
   INSTANCE: PART-1-1                                                                        
          THE FORCE     EQUILIBRIUM EQUATIONS HAVE CONVERGED

 AVERAGE MOMENT                     1.544E-05   TIME AVG. MOMENT      9.923E-06
 LARGEST RESIDUAL MOMENT            1.466E-11   AT NODE         80   DOF  5
   INSTANCE: PART-1-1                                                                        
 LARGEST INCREMENT OF ROTATION      6.569E-04   AT NODE        191   DOF  4
   INSTANCE: PART-1-1                                                                        
 LARGEST CORRECTION TO ROTATION    -9.519E-08   AT NODE         64   DOF  4
   INSTANCE: PART-1-1                                                                        
          THE MOMENT    EQUILIBRIUM EQUATIONS HAVE CONVERGED
          TIME INCREMENT MAY NOW INCREASE TO    0.127    

 ITERATION SUMMARY FOR THE INCREMENT:   2 TOTAL ITERATIONS, OF WHICH
   0 ARE SEVERE DISCONTINUITY ITERATIONS AND  2 ARE EQUILIBRIUM ITERATIONS.

 TIME INCREMENT COMPLETED  8.438E-02,  FRACTION OF STEP COMPLETED  0.589    
 STEP TIME COMPLETED        1.18    ,  TOTAL TIME COMPLETED         1.18    


  INCREMENT    23 STARTS. ATTEMPT NUMBER  1, TIME INCREMENT  0.127    

  NUMBER OF EQUATIONS =      1143     NUMBER OF RHS =    1
  NUMBER OF FLOATING PT. OPERATIONS =  2.15E+06

     CHECK POINT   START OF SOLVER    

     CHECK POINT  END OF SOLVER       

       ELAPSED USER TIME (SEC)      =   0.0000    
       ELAPSED SYSTEM TIME (SEC)    =   0.0000    
       ELAPSED TOTAL CPU TIME (SEC) =   0.0000    
       ELAPSED WALLCLOCK TIME (SEC) =          0

               CONVERGENCE CHECKS FOR EQUILIBRIUM ITERATION     1


 AVERAGE FORCE                      2.728E-06   TIME AVG. FORCE       9.918E-07
 LARGEST RESIDUAL FORCE            -5.500E-05   AT NODE          1   DOF  2
   INSTANCE: REFPOINT-0                                                                      
 LARGEST INCREMENT OF DISP.        -1.176E-03   AT NODE        189   DOF  3
   INSTANCE: PART-1-1                                                                        
 LARGEST CORRECTION TO DISP.       -2.570E-02   AT NODE        189   DOF  3
   INSTANCE: PART-1-1                                                                        
          FORCE     EQUILIBRIUM NOT ACHIEVED WITHIN TOLERANCE.

 AVERAGE MOMENT                     1.543E-05   TIME AVG. MOMENT      1.016E-05
 LARGEST RESIDUAL MOMENT           -5.563E-08   AT NODE        175   DOF  4
   INSTANCE: PART-1-1                                                                        
 LARGEST INCREMENT OF ROTATION     -4.715E-05   AT NODE        192   DOF  4
   INSTANCE: PART-1-1                                                                        
 LARGEST CORRECTION TO ROTATION    -1.032E-03   AT NODE        191   DOF  4
   INSTANCE: PART-1-1                                                                        
          MOMENT    EQUILIBRIUM NOT ACHIEVED WITHIN TOLERANCE.

  NUMBER OF EQUATIONS =      1143     NUMBER OF RHS =    1
  NUMBER OF FLOATING PT. OPERATIONS =  2.15E+06

     CHECK POINT   START OF SOLVER    

     CHECK POINT  END OF SOLVER       

       ELAPSED USER TIME (SEC)      =   0.0000    
       ELAPSED SYSTEM TIME (SEC)    =   0.0000    
       ELAPSED TOTAL CPU TIME (SEC) =   0.0000    
       ELAPSED WALLCLOCK TIME (SEC) =          0

               CONVERGENCE CHECKS FOR EQUILIBRIUM ITERATION     2


 AVERAGE FORCE                      1.319E-06   TIME AVG. FORCE       9.177E-07
 LARGEST RESIDUAL FORCE             4.527E-11   AT NODE          1   DOF  2
   INSTANCE: REFPOINT-0                                                                      
 LARGEST INCREMENT OF DISP.        -1.175E-03   AT NODE        189   DOF  3
   INSTANCE: PART-1-1                                                                        
 LARGEST CORRECTION TO DISP.       -1.132E-05   AT NODE        189   DOF  2
   INSTANCE: PART-1-1                                                                        
          THE FORCE     EQUILIBRIUM EQUATIONS HAVE CONVERGED

 AVERAGE MOMENT                     1.544E-05   TIME AVG. MOMENT      1.016E-05
 LARGEST RESIDUAL MOMENT            7.348E-12   AT NODE         76   DOF  5
   INSTANCE: PART-1-1                                                                        
 LARGEST INCREMENT OF ROTATION     -4.717E-05   AT NODE        191   DOF  4
   INSTANCE: PART-1-1                                                                        
 LARGEST CORRECTION TO ROTATION    -2.637E-08   AT NODE         88   DOF  4
   INSTANCE: PART-1-1                                                                        
          THE MOMENT    EQUILIBRIUM EQUATIONS HAVE CONVERGED
          TIME INCREMENT MAY NOW INCREASE TO    0.190    

 ITERATION SUMMARY FOR THE INCREMENT:   2 TOTAL ITERATIONS, OF WHICH
   0 ARE SEVERE DISCONTINUITY ITERATIONS AND  2 ARE EQUILIBRIUM ITERATIONS.

 TIME INCREMENT COMPLETED  0.127    ,  FRACTION OF STEP COMPLETED  0.652    
 STEP TIME COMPLETED        1.30    ,  TOTAL TIME COMPLETED         1.30    


  INCREMENT    24 STARTS. ATTEMPT NUMBER  1, TIME INCREMENT  0.190    

  NUMBER OF EQUATIONS =      1143     NUMBER OF RHS =    1
  NUMBER OF FLOATING PT. OPERATIONS =  2.15E+06

     CHECK POINT   START OF SOLVER    

     CHECK POINT  END OF SOLVER       

       ELAPSED USER TIME (SEC)      =   0.0000    
       ELAPSED SYSTEM TIME (SEC)    =  1.00000E-02
       ELAPSED TOTAL CPU TIME (SEC) =  1.00000E-02
       ELAPSED WALLCLOCK TIME (SEC) =          0

               CONVERGENCE CHECKS FOR EQUILIBRIUM ITERATION     1


 AVERAGE FORCE                      1.321E-06   TIME AVG. FORCE       9.378E-07
 LARGEST RESIDUAL FORCE            -1.011E-07   AT NODE          1   DOF  2
   INSTANCE: REFPOINT-0                                                                      
 LARGEST INCREMENT OF DISP.        -6.607E-04   AT NODE        189   DOF  3
   INSTANCE: PART-1-1                                                                        
 LARGEST CORRECTION TO DISP.        1.101E-03   AT NODE        189   DOF  3
   INSTANCE: PART-1-1                                                                        
          FORCE     EQUILIBRIUM NOT ACHIEVED WITHIN TOLERANCE.

 AVERAGE MOMENT                     1.544E-05   TIME AVG. MOMENT      1.038E-05
 LARGEST RESIDUAL MOMENT            1.839E-11   AT NODE        186   DOF  4
   INSTANCE: PART-1-1                                                                        
 LARGEST INCREMENT OF ROTATION     -2.653E-05   AT NODE        191   DOF  4
   INSTANCE: PART-1-1                                                                        
 LARGEST CORRECTION TO ROTATION     4.423E-05   AT NODE        191   DOF  4
   INSTANCE: PART-1-1                                                                        
          ROTATION CORRECTION TOO LARGE COMPARED TO ROTATION INCREMENT

  NUMBER OF EQUATIONS =      1143     NUMBER OF RHS =    1
  NUMBER OF FLOATING PT. OPERATIONS =  2.15E+06

     CHECK POINT   START OF SOLVER    

     CHECK POINT  END OF SOLVER       

       ELAPSED USER TIME (SEC)      =   0.0000    
       ELAPSED SYSTEM TIME (SEC)    =   0.0000    
       ELAPSED TOTAL CPU TIME (SEC) =   0.0000    
       ELAPSED WALLCLOCK TIME (SEC) =          0

               CONVERGENCE CHECKS FOR EQUILIBRIUM ITERATION     2


 AVERAGE FORCE                      1.319E-06   TIME AVG. FORCE       9.378E-07
 LARGEST RESIDUAL FORCE             2.806E-12   AT NODE        165   DOF  2
   INSTANCE: PART-1-1                                                                        
 LARGEST INCREMENT OF DISP.        -6.607E-04   AT NODE        189   DOF  3
   INSTANCE: PART-1-1                                                                        
 LARGEST CORRECTION TO DISP.       -2.058E-08   AT NODE          1   DOF  2
   INSTANCE: REFPOINT-0                                                                      
          THE FORCE     EQUILIBRIUM EQUATIONS HAVE CONVERGED

 AVERAGE MOMENT                     1.544E-05   TIME AVG. MOMENT      1.038E-05
 LARGEST RESIDUAL MOMENT            1.241E-13   AT NODE        120   DOF  5
   INSTANCE: PART-1-1                                                                        
 LARGEST INCREMENT OF ROTATION     -2.653E-05   AT NODE        191   DOF  4
   INSTANCE: PART-1-1                                                                        
 LARGEST CORRECTION TO ROTATION    -9.330E-11   AT NODE         48   DOF  4
   INSTANCE: PART-1-1                                                                        
          THE MOMENT    EQUILIBRIUM EQUATIONS HAVE CONVERGED
          TIME INCREMENT MAY NOW INCREASE TO    0.285    

 ITERATION SUMMARY FOR THE INCREMENT:   2 TOTAL ITERATIONS, OF WHICH
   0 ARE SEVERE DISCONTINUITY ITERATIONS AND  2 ARE EQUILIBRIUM ITERATIONS.

 TIME INCREMENT COMPLETED  0.190    ,  FRACTION OF STEP COMPLETED  0.747    
 STEP TIME COMPLETED        1.49    ,  TOTAL TIME COMPLETED         1.49    


  INCREMENT    25 STARTS. ATTEMPT NUMBER  1, TIME INCREMENT  0.285    

  NUMBER OF EQUATIONS =      1143     NUMBER OF RHS =    1
  NUMBER OF FLOATING PT. OPERATIONS =  2.15E+06

     CHECK POINT   START OF SOLVER    

     CHECK POINT  END OF SOLVER       

       ELAPSED USER TIME (SEC)      =   0.0000    
       ELAPSED SYSTEM TIME (SEC)    =   0.0000    
       ELAPSED TOTAL CPU TIME (SEC) =   0.0000    
       ELAPSED WALLCLOCK TIME (SEC) =          0

               CONVERGENCE CHECKS FOR EQUILIBRIUM ITERATION     1


 AVERAGE FORCE                      1.321E-06   TIME AVG. FORCE       9.560E-07
 LARGEST RESIDUAL FORCE            -8.266E-08   AT NODE          1   DOF  2
   INSTANCE: REFPOINT-0                                                                      
 LARGEST INCREMENT OF DISP.         5.238E-06   AT NODE        189   DOF  3
   INSTANCE: PART-1-1                                                                        
 LARGEST CORRECTION TO DISP.        9.963E-04   AT NODE        189   DOF  3
   INSTANCE: PART-1-1                                                                        
          FORCE     EQUILIBRIUM NOT ACHIEVED WITHIN TOLERANCE.

 AVERAGE MOMENT                     1.544E-05   TIME AVG. MOMENT      1.059E-05
 LARGEST RESIDUAL MOMENT            3.677E-12   AT NODE        182   DOF  4
   INSTANCE: PART-1-1                                                                        
 LARGEST INCREMENT OF ROTATION      2.106E-07   AT NODE        191   DOF  4
   INSTANCE: PART-1-1                                                                        
 LARGEST CORRECTION TO ROTATION     4.000E-05   AT NODE        191   DOF  4
   INSTANCE: PART-1-1                                                                        
          ROTATION CORRECTION TOO LARGE COMPARED TO ROTATION INCREMENT

  NUMBER OF EQUATIONS =      1143     NUMBER OF RHS =    1
  NUMBER OF FLOATING PT. OPERATIONS =  2.15E+06

     CHECK POINT   START OF SOLVER    

     CHECK POINT  END OF SOLVER       

       ELAPSED USER TIME (SEC)      =  1.00000E-02
       ELAPSED SYSTEM TIME (SEC)    =   0.0000    
       ELAPSED TOTAL CPU TIME (SEC) =  1.00000E-02
       ELAPSED WALLCLOCK TIME (SEC) =          0

               CONVERGENCE CHECKS FOR EQUILIBRIUM ITERATION     2


 AVERAGE FORCE                      1.319E-06   TIME AVG. FORCE       9.559E-07
 LARGEST RESIDUAL FORCE             2.349E-12   AT NODE          1   DOF  1
   INSTANCE: REFPOINT-0                                                                      
 LARGEST INCREMENT OF DISP.         5.240E-06   AT NODE        189   DOF  3
   INSTANCE: PART-1-1                                                                        
 LARGEST CORRECTION TO DISP.       -1.704E-08   AT NODE          1   DOF  2
   INSTANCE: REFPOINT-0                                                                      
          THE FORCE     EQUILIBRIUM EQUATIONS HAVE CONVERGED

 AVERAGE MOMENT                     1.544E-05   TIME AVG. MOMENT      1.059E-05
 LARGEST RESIDUAL MOMENT           -1.734E-13   AT NODE        181   DOF  5
   INSTANCE: PART-1-1                                                                        
 LARGEST INCREMENT OF ROTATION      2.105E-07   AT NODE        191   DOF  4
   INSTANCE: PART-1-1                                                                        
 LARGEST CORRECTION TO ROTATION    -5.030E-11   AT NODE        101   DOF  4
   INSTANCE: PART-1-1                                                                        
          THE MOMENT    EQUILIBRIUM EQUATIONS HAVE CONVERGED

 ITERATION SUMMARY FOR THE INCREMENT:   2 TOTAL ITERATIONS, OF WHICH
   0 ARE SEVERE DISCONTINUITY ITERATIONS AND  2 ARE EQUILIBRIUM ITERATIONS.

 TIME INCREMENT COMPLETED  0.285    ,  FRACTION OF STEP COMPLETED  0.890    
 STEP TIME COMPLETED        1.78    ,  TOTAL TIME COMPLETED         1.78    


  INCREMENT    26 STARTS. ATTEMPT NUMBER  1, TIME INCREMENT  0.221    

  NUMBER OF EQUATIONS =      1143     NUMBER OF RHS =    1
  NUMBER OF FLOATING PT. OPERATIONS =  2.15E+06

     CHECK POINT   START OF SOLVER    

     CHECK POINT  END OF SOLVER       

       ELAPSED USER TIME (SEC)      =   0.0000    
       ELAPSED SYSTEM TIME (SEC)    =   0.0000    
       ELAPSED TOTAL CPU TIME (SEC) =   0.0000    
       ELAPSED WALLCLOCK TIME (SEC) =          0

               CONVERGENCE CHECKS FOR EQUILIBRIUM ITERATION     1


 AVERAGE FORCE                      1.319E-06   TIME AVG. FORCE       9.724E-07
 LARGEST RESIDUAL FORCE             1.991E-12   AT NODE          1   DOF  1
   INSTANCE: REFPOINT-0                                                                      
 LARGEST INCREMENT OF DISP.         4.938E-06   AT NODE        189   DOF  3
   INSTANCE: PART-1-1                                                                        
 LARGEST CORRECTION TO DISP.        8.762E-07   AT NODE        189   DOF  3
   INSTANCE: PART-1-1                                                                        
          DISP.    CORRECTION TOO LARGE COMPARED TO DISP.    INCREMENT

 AVERAGE MOMENT                     1.545E-05   TIME AVG. MOMENT      1.077E-05
 LARGEST RESIDUAL MOMENT           -1.673E-13   AT NODE        191   DOF  4
   INSTANCE: PART-1-1                                                                        
 LARGEST INCREMENT OF ROTATION      1.984E-07   AT NODE        191   DOF  4
   INSTANCE: PART-1-1                                                                        
 LARGEST CORRECTION TO ROTATION     3.521E-08   AT NODE        191   DOF  4
   INSTANCE: PART-1-1                                                                        
          ROTATION CORRECTION TOO LARGE COMPARED TO ROTATION INCREMENT

  NUMBER OF EQUATIONS =      1143     NUMBER OF RHS =    1
  NUMBER OF FLOATING PT. OPERATIONS =  2.15E+06

     CHECK POINT   START OF SOLVER    

     CHECK POINT  END OF SOLVER       

       ELAPSED USER TIME (SEC)      =  1.00000E-02
       ELAPSED SYSTEM TIME (SEC)    =   0.0000    
       ELAPSED TOTAL CPU TIME (SEC) =  1.00000E-02
       ELAPSED WALLCLOCK TIME (SEC) =          0

               CONVERGENCE CHECKS FOR EQUILIBRIUM ITERATION     2


 AVERAGE FORCE                      1.319E-06   TIME AVG. FORCE       9.724E-07
 LARGEST RESIDUAL FORCE             1.852E-12   AT NODE          1   DOF  1
   INSTANCE: REFPOINT-0                                                                      
 LARGEST INCREMENT OF DISP.         4.938E-06   AT NODE        189   DOF  3
   INSTANCE: PART-1-1                                                                        
 LARGEST CORRECTION TO DISP.        7.667E-13   AT NODE        116   DOF  3
   INSTANCE: PART-1-1                                                                        
          THE FORCE     EQUILIBRIUM EQUATIONS HAVE CONVERGED

 AVERAGE MOMENT                     1.545E-05   TIME AVG. MOMENT      1.077E-05
 LARGEST RESIDUAL MOMENT            1.464E-13   AT NODE        192   DOF  4
   INSTANCE: PART-1-1                                                                        
 LARGEST INCREMENT OF ROTATION      1.984E-07   AT NODE        191   DOF  4
   INSTANCE: PART-1-1                                                                        
 LARGEST CORRECTION TO ROTATION    -1.087E-12   AT NODE         32   DOF  5
   INSTANCE: PART-1-1                                                                        
          THE MOMENT    EQUILIBRIUM EQUATIONS HAVE CONVERGED

 ITERATION SUMMARY FOR THE INCREMENT:   2 TOTAL ITERATIONS, OF WHICH
   0 ARE SEVERE DISCONTINUITY ITERATIONS AND  2 ARE EQUILIBRIUM ITERATIONS.

 TIME INCREMENT COMPLETED  0.221    ,  FRACTION OF STEP COMPLETED   1.00    
 STEP TIME COMPLETED        2.00    ,  TOTAL TIME COMPLETED         2.00    


          THE ANALYSIS HAS BEEN COMPLETED



     ANALYSIS SUMMARY:
     TOTAL OF         26  INCREMENTS
                       1  CUTBACKS IN AUTOMATIC INCREMENTATION
                     115  ITERATIONS INCLUDING CONTACT ITERATIONS IF PRESENT
                     115  PASSES THROUGH THE EQUATION SOLVER OF WHICH 
                     115  INVOLVE MATRIX DECOMPOSITION, INCLUDING
                       0  DECOMPOSITION(S) OF THE MASS MATRIX
                       1  REORDERING OF EQUATIONS TO MINIMIZE WAVEFRONT
                       0  ADDITIONAL RESIDUAL EVALUATIONS FOR LINE SEARCHES
                       0  ADDITIONAL OPERATOR EVALUATIONS FOR LINE SEARCHES
                       2  WARNING MESSAGES DURING USER INPUT PROCESSING
                       7  WARNING MESSAGES DURING ANALYSIS
                       0  ANALYSIS WARNINGS ARE NUMERICAL PROBLEM MESSAGES
                       3  ANALYSIS WARNINGS ARE NEGATIVE EIGENVALUE MESSAGES
                       0  ERROR MESSAGES



     JOB TIME SUMMARY
       USER TIME (SEC)      =   3.2100    
       SYSTEM TIME (SEC)    =  0.21000    
       TOTAL CPU TIME (SEC) =   3.4200    
       WALLCLOCK TIME (SEC) =          4
