 Abaqus/Standard 2021                  DATE 14-Feb-2023 TIME 14:23:16
 SUMMARY OF JOB INFORMATION:
 STEP  INC ATT SEVERE EQUIL TOTAL  TOTAL      STEP       INC OF       DOF    IF
               DISCON ITERS ITERS  TIME/    TIME/LPF    TIME/LPF    MONITOR RIKS
               ITERS               FREQ
   1     1   1     0     2     2  0.0133     0.0133     0.01333   
   1     2   1     0     1     1  0.0267     0.0267     0.01333   
   1     3   1     0     1     1  0.0400     0.0400     0.01333   
   1     4   1     0     1     1  0.0533     0.0533     0.01333   
   1     5   1     0     1     1  0.0667     0.0667     0.01333   
   1     6   1     0     1     1  0.0800     0.0800     0.01333   
   1     7   1     0     1     1  0.0933     0.0933     0.01333   
   1     8   1     0     1     1  0.107      0.107      0.01333   
   1     9   1     0     1     1  0.120      0.120      0.01333   
   1    10   1     0     1     1  0.133      0.133      0.01333   
   1    11   1     0     1     1  0.147      0.147      0.01333   
   1    12   1     0     1     1  0.160      0.160      0.01333   
   1    13   1     0     1     1  0.173      0.173      0.01333   
   1    14   1     0     1     1  0.187      0.187      0.01333   
   1    15   1     0     1     1  0.200      0.200      0.01333   
   1    16   1     0     1     1  0.213      0.213      0.01333   
   1    17   1     0     1     1  0.227      0.227      0.01333   
   1    18   1     0     1     1  0.240      0.240      0.01333   
   1    19   1     0     1     1  0.253      0.253      0.01333   
   1    20   1     0     1     1  0.267      0.267      0.01333   
   1    21   1     0     1     1  0.280      0.280      0.01333   
   1    22   1     0     1     1  0.293      0.293      0.01333   
   1    23   1     0     1     1  0.307      0.307      0.01333   
   1    24   1     0     1     1  0.320      0.320      0.01333   
   1    25   1     0     1     1  0.333      0.333      0.01333   
   1    26   1     0     1     1  0.347      0.347      0.01333   
   1    27   1     0     1     1  0.360      0.360      0.01333   
   1    28   1     0     1     1  0.373      0.373      0.01333   
   1    29   1     0     1     1  0.387      0.387      0.01333   
   1    30   1     0     1     1  0.400      0.400      0.01333   
   1    31   1     0     1     1  0.413      0.413      0.01333   
   1    32   1     0     1     1  0.427      0.427      0.01333   
   1    33   1     0     1     1  0.440      0.440      0.01333   
   1    34   1     0     1     1  0.453      0.453      0.01333   
   1    35   1     0     1     1  0.467      0.467      0.01333   
   1    36   1     0     1     1  0.480      0.480      0.01333   
   1    37   1     0     1     1  0.493      0.493      0.01333   
   1    38   1     0     1     1  0.507      0.507      0.01333   
   1    39   1     0     1     1  0.520      0.520      0.01333   
   1    40   1     0     1     1  0.533      0.533      0.01333   
   1    41   1     0     1     1  0.547      0.547      0.01333   
   1    42   1     0     1     1  0.560      0.560      0.01333   
   1    43   1     0     1     1  0.573      0.573      0.01333   
   1    44   1     0     1     1  0.587      0.587      0.01333   
   1    45   1     0     1     1  0.600      0.600      0.01333   
   1    46   1     0     1     1  0.613      0.613      0.01333   
   1    47   1     0     1     1  0.627      0.627      0.01333   
   1    48   1     0     1     1  0.640      0.640      0.01333   
   1    49   1     0     1     1  0.653      0.653      0.01333   
   1    50   1     0     1     1  0.667      0.667      0.01333   
   1    51   1     0     1     1  0.680      0.680      0.01333   
   1    52   1     0     1     1  0.693      0.693      0.01333   
   1    53   1     0     1     1  0.707      0.707      0.01333   
   1    54   1     0     1     1  0.720      0.720      0.01333   
   1    55   1     0     1     1  0.733      0.733      0.01333   
   1    56   1     0     1     1  0.747      0.747      0.01333   
   1    57   1     0     1     1  0.760      0.760      0.01333   
   1    58   1     0     1     1  0.773      0.773      0.01333   
   1    59   1     0     1     1  0.787      0.787      0.01333   
   1    60   1     0     1     1  0.800      0.800      0.01333   
   1    61   1     0     1     1  0.813      0.813      0.01333   
   1    62   1     0     1     1  0.827      0.827      0.01333   
   1    63   1     0     1     1  0.840      0.840      0.01333   
   1    64   1     0     1     1  0.853      0.853      0.01333   
   1    65   1     0     1     1  0.867      0.867      0.01333   
   1    66   1     0     1     1  0.880      0.880      0.01333   
   1    67   1     0     1     1  0.893      0.893      0.01333   
   1    68   1     0     1     1  0.907      0.907      0.01333   
   1    69   1     0     1     1  0.920      0.920      0.01333   
   1    70   1     0     1     1  0.933      0.933      0.01333   
   1    71   1     0     1     1  0.947      0.947      0.01333   
   1    72   1     0     1     1  0.960      0.960      0.01333   
   1    73   1     0     1     1  0.973      0.973      0.01333   
   1    74   1     0     1     1  0.987      0.987      0.01333   
   1    75   1     0     1     1  1.00       1.00       0.01333   
                          
 THE ANALYSIS HAS COMPLETED SUCCESSFULLY
