 Abaqus/Standard 2021                  DATE 14-Feb-2023 TIME 14:19:51
 SUMMARY OF JOB INFORMATION:
 STEP  INC ATT SEVERE EQUIL TOTAL  TOTAL      STEP       INC OF       DOF    IF
               DISCON ITERS ITERS  TIME/    TIME/LPF    TIME/LPF    MONITOR RIKS
               ITERS               FREQ
   1     1   1     0     4     4  0.0740     0.0740     0.07400   
   1     2   1U    0     7     7  0.0740     0.0740     0.07039   
   1     2   2     0     4     4  0.0916     0.0916     0.01760   
   1     3   1     0     4     4  0.118      0.118      0.02640   
   1     4   1     0     6     6  0.144      0.144      0.02640   
   1     5   1     0     6     6  0.184      0.184      0.03959   
   1     6   1     0     6     6  0.212      0.212      0.02752   
   1     7   1     0     6     6  0.251      0.251      0.03959   
   1     8   1     0     5     5  0.276      0.276      0.02454   
   1     9   1     0     6     6  0.315      0.315      0.03959   
   1    10   1     0     5     5  0.337      0.337      0.02181   
   1    11   1     0     6     6  0.377      0.377      0.03959   
   1    12   1     0     4     4  0.396      0.396      0.01930   
   1    13   1     0     6     6  0.436      0.436      0.03959   
   1    14   1     0     3     3  0.453      0.453      0.01699   
   1    15   1     0     6     6  0.492      0.492      0.03959   
   1    16   1     0     3     3  0.507      0.507      0.01485   
   1    17   1     0     6     6  0.547      0.547      0.03959   
   1    18   1     0     3     3  0.559      0.559      0.01287   
   1    19   1     0     6     6  0.599      0.599      0.03959   
   1    20   1     0     3     3  0.610      0.610      0.01103   
   1    21   1     0     6     6  0.659      0.659      0.04891   
   1    22   1     0     8     8  0.706      0.706      0.04731   
   1    23   1     0     7     7  0.752      0.752      0.04580   
   1    24   1     0     6     6  0.796      0.796      0.04440   
   1    25   1     0     6     6  0.840      0.840      0.04307   
   1    26   1     0     6     6  0.881      0.881      0.04182   
   1    27   1     0     6     6  0.922      0.922      0.04064   
   1    28   1     0     6     6  0.962      0.962      0.03953   
   1    29   1     0     6     6  1.00       1.00       0.03847   
   1    30   1     0     8     8  1.05       1.05       0.04891   
   1    31   1     0     4     4  1.10       1.10       0.04891   
   1    32   1     0     2     2  1.15       1.15       0.04891   
   1    33   1     0     2     2  1.22       1.22       0.07336   
   1    34   1     0     2     2  1.33       1.33       0.1100    
   1    35   1     0     2     2  1.50       1.50       0.1651    
   1    36   1     0     2     2  1.74       1.74       0.2476    
   1    37   1     0     2     2  2.00       2.00       0.2572    
                          
 THE ANALYSIS HAS COMPLETED SUCCESSFULLY
