 Abaqus/Standard 2021                  DATE 14-Feb-2023 TIME 14:21:07
 SUMMARY OF JOB INFORMATION:
 STEP  INC ATT SEVERE EQUIL TOTAL  TOTAL      STEP       INC OF       DOF    IF
               DISCON ITERS ITERS  TIME/    TIME/LPF    TIME/LPF    MONITOR RIKS
               ITERS               FREQ
   1     1   1     0     5     5  0.0740     0.0740     0.07400   
   1     2   1U    0     4     4  0.0740     0.0740     0.07039   
   1     2   2U    0    10    10  0.0740     0.0740     0.01760   
   1     2   3     0     6     6  0.0828     0.0828     0.008799  
   1     3   1     0     3     3  0.0916     0.0916     0.008799  
   1     4   1     0     3     3  0.100      0.100      0.008799  
   1     5   1     0     4     4  0.114      0.114      0.01320   
   1     6   1U    0     5     5  0.114      0.114      0.01980   
   1     6   2     0     3     3  0.119      0.119      0.004949  
   1     7   1     0     3     3  0.126      0.126      0.007424  
   1     8   1     0     4     4  0.137      0.137      0.01114   
   1     9   1     0     4     4  0.144      0.144      0.007286  
   1    10   1U    0     4     4  0.144      0.144      0.02506   
   1    10   2     0     3     3  0.151      0.151      0.006264  
   1    11   1     0     5     5  0.160      0.160      0.009396  
   1    12   1     0     6     6  0.169      0.169      0.009396  
   1    13   1     0     8     8  0.179      0.179      0.009396  
   1    14   1U    0     4     4  0.179      0.179      0.009396  
   1    14   2     0     3     3  0.181      0.181      0.002349  
   1    15   1     0     2     2  0.184      0.184      0.002349  
   1    16   1     0     3     3  0.187      0.187      0.003523  
   1    17   1     0     4     4  0.192      0.192      0.005285  
   1    18   1     0     6     6  0.200      0.200      0.007928  
   1    19   1     0     6     6  0.208      0.208      0.007928  
   1    20   1     0     3     3  0.212      0.212      0.003301  
   1    21   1     0     6     6  0.219      0.219      0.007928  
   1    22   1     0     8     8  0.227      0.227      0.007928  
   1    23   1U    0     9     9  0.227      0.227      0.007928  
   1    23   2     0     4     4  0.231      0.231      0.003964  
   1    24   1     0     3     3  0.235      0.235      0.003964  
   1    25   1     0     5     5  0.241      0.241      0.005946  
   1    26   1     0     6     6  0.247      0.247      0.005946  
   1    27   1     0     6     6  0.253      0.253      0.005946  
   1    28   1     0     6     6  0.259      0.259      0.005946  
   1    29   1     0     6     6  0.265      0.265      0.005946  
   1    30   1     0     6     6  0.271      0.271      0.005946  
   1    31   1     0     5     5  0.276      0.276      0.004672  
   1    32   1     0     6     6  0.282      0.282      0.005946  
   1    33   1     0     6     6  0.288      0.288      0.005946  
   1    34   1     0     6     6  0.293      0.293      0.005946  
   1    35   1     0     6     6  0.299      0.299      0.005946  
   1    36   1     0     6     6  0.305      0.305      0.005946  
   1    37   1     0     6     6  0.311      0.311      0.005946  
   1    38   1     0     6     6  0.317      0.317      0.005946  
   1    39   1     0     6     6  0.323      0.323      0.005946  
   1    40   1     0     6     6  0.329      0.329      0.005946  
   1    41   1     0     5     5  0.335      0.335      0.005946  
   1    42   1     0     3     3  0.337      0.337      0.001943  
   1    43   1     0     3     3  0.343      0.343      0.005946  
   1    44   1     0     6     6  0.352      0.352      0.008919  
   1    45   1     0     6     6  0.361      0.361      0.008919  
   1    46   1     0     6     6  0.370      0.370      0.008919  
   1    47   1     0     6     6  0.379      0.379      0.008919  
   1    48   1     0     7     7  0.388      0.388      0.008919  
   1    49   1     0     5     5  0.396      0.396      0.008355  
   1    50   1     0     4     4  0.405      0.405      0.008919  
   1    51   1     0     5     5  0.414      0.414      0.008919  
   1    52   1     0     4     4  0.423      0.423      0.008919  
   1    53   1     0     4     4  0.432      0.432      0.008919  
   1    54   1     0     5     5  0.445      0.445      0.01338   
   1    55   1     0     3     3  0.453      0.453      0.007530  
   1    56   1     0     4     4  0.466      0.466      0.01338   
   1    57   1     0     4     4  0.486      0.486      0.02007   
   1    58   1     0     3     3  0.507      0.507      0.02100   
   1    59   1     0     2     2  0.538      0.538      0.03150   
   1    60   1     0     2     2  0.559      0.559      0.02096   
   1    61   1     0     5     5  0.610      0.610      0.05063   
   1    62   1U    0     5     5  0.610      0.610      0.04891   
   1    62   2     0     3     3  0.622      0.622      0.01223   
   1    63   1     0     3     3  0.635      0.635      0.01223   
   1    64   1     0     4     4  0.653      0.653      0.01834   
   1    65   1     0     2     2  0.659      0.659      0.006114  
   1    66   1U    0     4     4  0.659      0.659      0.04731   
   1    66   2     0     4     4  0.671      0.671      0.01183   
   1    67   1     0     6     6  0.689      0.689      0.01774   
   1    68   1     0     6     6  0.706      0.706      0.01774   
   1    69   1     0     7     7  0.724      0.724      0.01774   
   1    70   1U    0     7     7  0.724      0.724      0.01774   
   1    70   2     0     3     3  0.728      0.728      0.004435  
   1    71   1     0     2     2  0.733      0.733      0.004435  
   1    72   1     0     3     3  0.740      0.740      0.006652  
   1    73   1     0     4     4  0.750      0.750      0.009979  
   1    74   1     0     2     2  0.752      0.752      0.002562  
   1    75   1U    0     5     5  0.752      0.752      0.02245   
   1    75   2     0     2     2  0.758      0.758      0.005613  
   1    76   1     0     3     3  0.766      0.766      0.008419  
   1    77   1     0     5     5  0.779      0.779      0.01263   
   1    78   1     0     5     5  0.791      0.791      0.01263   
   1    79   1     0     3     3  0.796      0.796      0.005104  
   1    80   1     0     4     4  0.809      0.809      0.01263   
   1    81   1     0     8     8  0.828      0.828      0.01894   
   1    82   1     0     4     4  0.840      0.840      0.01150   
   1    83   1     0     5     5  0.858      0.858      0.01894   
   1    84   1     0     5     5  0.881      0.881      0.02288   
   1    85   1     0     4     4  0.904      0.904      0.02288   
   1    86   1     0     3     3  0.922      0.922      0.01776   
   1    87   1     0     3     3  0.962      0.962      0.03953   
   1    88   1     0     4     4  1.00       1.00       0.03847   
   1    89   1U    0     4     4  1.00       1.00       0.08894   
   1    89   2     0     3     3  1.02       1.02       0.02224   
   1    90   1     0     4     4  1.06       1.06       0.03335   
   1    91   1     0     5     5  1.11       1.11       0.05003   
   1    92   1     0     3     3  1.16       1.16       0.05003   
   1    93   1     0     2     2  1.21       1.21       0.05003   
   1    94   1     0     4     4  1.28       1.28       0.07504   
   1    95   1     0     4     4  1.39       1.39       0.1126    
   1    96   1     0     2     2  1.56       1.56       0.1688    
   1    97   1     0     2     2  1.82       1.82       0.2533    
   1    98   1     0     2     2  2.00       2.00       0.1846    
                          
 THE ANALYSIS HAS COMPLETED SUCCESSFULLY
