 Abaqus/Standard 2021                  DATE 14-Feb-2023 TIME 14:20:05
 SUMMARY OF JOB INFORMATION:
 STEP  INC ATT SEVERE EQUIL TOTAL  TOTAL      STEP       INC OF       DOF    IF
               DISCON ITERS ITERS  TIME/    TIME/LPF    TIME/LPF    MONITOR RIKS
               ITERS               FREQ
   1     1   1     0     7     7  0.0740     0.0740     0.07400   
   1     2   1U    0     4     4  0.0740     0.0740     0.07039   
   1     2   2U    0     4     4  0.0740     0.0740     0.01760   
   1     2   3     0     2     2  0.0784     0.0784     0.004399  
   1     3   1     0     2     2  0.0828     0.0828     0.004399  
   1     4   1     0     2     2  0.0894     0.0894     0.006599  
   1     5   1     0     4     4  0.0993     0.0993     0.009899  
   1     6   1     0     7     7  0.114      0.114      0.01485   
   1     7   1U    0     9     9  0.114      0.114      0.01485   
   1     7   2     0     4     4  0.122      0.122      0.007424  
   1     8   1     0     4     4  0.129      0.129      0.007424  
   1     9   1     0     6     6  0.140      0.140      0.01114   
   1    10   1     0     3     3  0.144      0.144      0.004262  
   1    11   1     0     6     6  0.156      0.156      0.01114   
   1    12   1U    0     5     5  0.156      0.156      0.01114   
   1    12   2     0     3     3  0.158      0.158      0.002784  
   1    13   1     0     2     2  0.161      0.161      0.002784  
   1    14   1     0     3     3  0.165      0.165      0.004176  
   1    15   1     0     4     4  0.172      0.172      0.006264  
   1    16   1     0     8     8  0.181      0.181      0.009396  
   1    17   1U    0     5     5  0.181      0.181      0.009396  
   1    17   2     0     3     3  0.183      0.183      0.002349  
   1    18   1     0     3     3  0.186      0.186      0.002349  
   1    19   1     0     3     3  0.189      0.189      0.003523  
   1    20   1     0     5     5  0.194      0.194      0.005285  
   1    21   1     0     6     6  0.200      0.200      0.005285  
   1    22   1     0     6     6  0.205      0.205      0.005285  
   1    23   1     0     8     8  0.212      0.212      0.006498  
   1    24   1     0     8     8  0.218      0.218      0.006498  
   1    25   1     0     8     8  0.224      0.224      0.006498  
   1    26   1     0     8     8  0.231      0.231      0.006498  
   1    27   1     0     8     8  0.237      0.237      0.006498  
   1    28   1     0     9     9  0.244      0.244      0.006498  
   1    29   1U    0     9     9  0.244      0.244      0.006498  
   1    29   2     0     5     5  0.247      0.247      0.003249  
   1    30   1     0     4     4  0.250      0.250      0.003249  
   1    31   1     0     4     4  0.254      0.254      0.003249  
   1    32   1     0     6     6  0.259      0.259      0.004873  
   1    33   1     0     8     8  0.263      0.263      0.004873  
   1    34   1U    0     7     7  0.263      0.263      0.004873  
   1    34   2     0     3     3  0.265      0.265      0.001218  
   1    35   1     0     2     2  0.266      0.266      0.001218  
   1    36   1     0     3     3  0.268      0.268      0.001827  
   1    37   1     0     3     3  0.270      0.270      0.002741  
   1    38   1     0     5     5  0.275      0.275      0.004112  
   1    39   1     0     3     3  0.276      0.276      0.001031  
   1    40   1     0     4     4  0.280      0.280      0.004112  
   1    41   1     0     8     8  0.286      0.286      0.006168  
   1    42   1U    0     7     7  0.286      0.286      0.006168  
   1    42   2     0     3     3  0.287      0.287      0.001542  
   1    43   1     0     3     3  0.289      0.289      0.001542  
   1    44   1     0     3     3  0.291      0.291      0.002313  
   1    45   1     0     4     4  0.295      0.295      0.003469  
   1    46   1     0     8     8  0.300      0.300      0.005204  
   1    47   1     0     8     8  0.305      0.305      0.005204  
   1    48   1     0     8     8  0.310      0.310      0.005204  
   1    49   1     0     8     8  0.316      0.316      0.005204  
   1    50   1     0     8     8  0.321      0.321      0.005204  
   1    51   1     0     8     8  0.326      0.326      0.005204  
   1    52   1     0     8     8  0.331      0.331      0.005204  
   1    53   1     0    10    10  0.337      0.337      0.005827  
   1    54   1U    0     9     9  0.337      0.337      0.005827  
   1    54   2     0     4     4  0.340      0.340      0.002913  
   1    55   1     0     3     3  0.343      0.343      0.002913  
   1    56   1     0     6     6  0.347      0.347      0.004370  
   1    57   1     0     6     6  0.352      0.352      0.004370  
   1    58   1     0     6     6  0.356      0.356      0.004370  
   1    59   1     0     6     6  0.360      0.360      0.004370  
   1    60   1     0     6     6  0.365      0.365      0.004370  
   1    61   1     0     6     6  0.369      0.369      0.004370  
   1    62   1     0     6     6  0.373      0.373      0.004370  
   1    63   1     0     6     6  0.378      0.378      0.004370  
   1    64   1     0     5     5  0.382      0.382      0.004370  
   1    65   1     0     5     5  0.387      0.387      0.004370  
   1    66   1     0     5     5  0.391      0.391      0.004370  
   1    67   1     0     6     6  0.396      0.396      0.004994  
   1    68   1     0     6     6  0.401      0.401      0.004994  
   1    69   1     0     5     5  0.406      0.406      0.004994  
   1    70   1     0     5     5  0.411      0.411      0.004994  
   1    71   1     0     5     5  0.416      0.416      0.004994  
   1    72   1     0     4     4  0.421      0.421      0.004994  
   1    73   1     0     3     3  0.426      0.426      0.004994  
   1    74   1     0     7     7  0.433      0.433      0.007491  
   1    75   1     0     6     6  0.441      0.441      0.007491  
   1    76   1     0     5     5  0.448      0.448      0.007491  
   1    77   1     0     3     3  0.453      0.453      0.004143  
   1    78   1     0     4     4  0.460      0.460      0.007491  
   1    79   1     0     6     6  0.471      0.471      0.01124   
   1    80   1     0     5     5  0.482      0.482      0.01124   
   1    81   1     0     3     3  0.494      0.494      0.01124   
   1    82   1     0     3     3  0.507      0.507      0.01324   
   1    83   1     0     6     6  0.527      0.527      0.01987   
   1    84   1U    0     5     5  0.527      0.527      0.01987   
   1    84   2     0     4     4  0.532      0.532      0.004967  
   1    85   1     0     3     3  0.537      0.537      0.004967  
   1    86   1     0     4     4  0.544      0.544      0.007450  
   1    87   1     0     6     6  0.555      0.555      0.01118   
   1    88   1     0     3     3  0.559      0.559      0.004041  
   1    89   1     0     6     6  0.571      0.571      0.01118   
   1    90   1     0    10    10  0.582      0.582      0.01118   
   1    91   1U    0     7     7  0.582      0.582      0.01118   
   1    91   2     0     3     3  0.585      0.585      0.002794  
   1    92   1     0     2     2  0.587      0.587      0.002794  
   1    93   1     0     3     3  0.592      0.592      0.004191  
   1    94   1     0     3     3  0.598      0.598      0.006286  
   1    95   1     0     6     6  0.607      0.607      0.009429  
   1    96   1     0     3     3  0.610      0.610      0.002782  
   1    97   1     0     5     5  0.619      0.619      0.009429  
   1    98   1U    0     7     7  0.619      0.619      0.009429  
   1    98   2     0     3     3  0.622      0.622      0.002357  
   1    99   1     0     2     2  0.624      0.624      0.002357  
   1   100   1     0     2     2  0.628      0.628      0.003536  
   1   101   1     0     3     3  0.633      0.633      0.005304  
   1   102   1     0     4     4  0.641      0.641      0.007956  
   1   103   1     0     6     6  0.653      0.653      0.01193   
   1   104   1     0     3     3  0.659      0.659      0.006037  
   1   105   1     0     4     4  0.671      0.671      0.01193   
   1   106   1     0     6     6  0.689      0.689      0.01790   
   1   107   1     0     4     4  0.706      0.706      0.01747   
   1   108   1     0     6     6  0.724      0.724      0.01790   
   1   109   1     0     6     6  0.742      0.742      0.01790   
   1   110   1     0     6     6  0.752      0.752      0.01000   
   1   111   1U    0     5     5  0.752      0.752      0.01790   
   1   111   2     0     3     3  0.757      0.757      0.004475  
   1   112   1     0     3     3  0.761      0.761      0.004475  
   1   113   1     0     4     4  0.768      0.768      0.006713  
   1   114   1     0     6     6  0.778      0.778      0.01007   
   1   115   1     0     6     6  0.788      0.788      0.01007   
   1   116   1     0     6     6  0.796      0.796      0.008594  
   1   117   1     0     6     6  0.807      0.807      0.01007   
   1   118   1U    0     7     7  0.807      0.807      0.01007   
   1   118   2     0     3     3  0.809      0.809      0.002517  
   1   119   1     0     2     2  0.812      0.812      0.002517  
   1   120   1     0     3     3  0.815      0.815      0.003776  
   1   121   1     0     3     3  0.821      0.821      0.005664  
   1   122   1     0     6     6  0.830      0.830      0.008496  
   1   123   1     0     6     6  0.840      0.840      0.01003   
   1   124   1     0     6     6  0.850      0.850      0.01003   
   1   125   1     0     6     6  0.860      0.860      0.01003   
   1   126   1     0     7     7  0.870      0.870      0.01003   
   1   127   1     0     7     7  0.881      0.881      0.01173   
   1   128   1     0     6     6  0.893      0.893      0.01173   
   1   129   1     0     5     5  0.905      0.905      0.01173   
   1   130   1     0     4     4  0.917      0.917      0.01173   
   1   131   1     0     2     2  0.922      0.922      0.005436  
   1   132   1     0     4     4  0.940      0.940      0.01760   
   1   133   1     0     3     3  0.962      0.962      0.02193   
   1   134   1     0     8     8  1.00       1.00       0.03847   
   1   135   1U    0     4     4  1.00       1.00       0.03847   
   1   135   2     0     5     5  1.01       1.01       0.009619  
   1   136   1     0     3     3  1.02       1.02       0.009619  
   1   137   1     0     3     3  1.03       1.03       0.009619  
   1   138   1     0     4     4  1.04       1.04       0.01443   
   1   139   1     0     6     6  1.06       1.06       0.02164   
   1   140   1U    0     7     7  1.06       1.06       0.02164   
   1   140   2     0     2     2  1.07       1.07       0.005410  
   1   141   1     0     2     2  1.08       1.08       0.005410  
   1   142   1     0     2     2  1.08       1.08       0.008116  
   1   143   1     0     3     3  1.10       1.10       0.01217   
   1   144   1     0     4     4  1.11       1.11       0.01826   
   1   145   1     0     4     4  1.14       1.14       0.02739   
   1   146   1     0     4     4  1.18       1.18       0.04109   
   1   147   1     0     6     6  1.24       1.24       0.06163   
   1   148   1U    0     5     5  1.24       1.24       0.06163   
   1   148   2     0     3     3  1.26       1.26       0.01541   
   1   149   1     0     2     2  1.28       1.28       0.01541   
   1   150   1     0     4     4  1.30       1.30       0.02311   
   1   151   1     0     4     4  1.33       1.33       0.03467   
   1   152   1     0     4     4  1.38       1.38       0.05200   
   1   153   1     0     3     3  1.46       1.46       0.07800   
   1   154   1     0     6     6  1.58       1.58       0.1170    
   1   155   1     0     4     4  1.70       1.70       0.1170    
   1   156   1     0     2     2  1.81       1.81       0.1170    
   1   157   1     0     2     2  2.00       2.00       0.1860    
                          
 THE ANALYSIS HAS COMPLETED SUCCESSFULLY
