1

   Abaqus 2021                                  Date 14-Feb-2023   Time 14:22:27
   For use by HARVARD COLLEGE PRESIDENT AND FELLOWS OF under license from Dassault Systemes or its subsidiary.

                                                                                 
                                                                                 
 STEP    1     INCREMENT     1     STEP TIME    0.00    


                        S T E P       1     D Y N A M I C   A N A L Y S I S - I M P L I C I T  I N T E G R A T I O N


                                                                                          

          DYNAMIC APPLICATION PACKED SCHEME IS                 QUASI-STATIC        
          BACKWARD EULER (BWE) TIME INTEGRATOR IS USED

     AUTOMATIC TIME CONTROL WITH -
          A SUGGESTED INITIAL TIME INCREMENT OF                0.100    
          AND A TOTAL TIME PERIOD OF                            1.00    
          THE MINIMUM TIME INCREMENT ALLOWED IS                5.000E-12
          THE MAXIMUM TIME INCREMENT ALLOWED IS                 1.00    

          THE HALF-INCREMENT RESIDUALS WILL NOT BE CALCULATED

          INITIAL ACCELERATIONS WILL NOT BE CALCULATED
          AGGRESSIVE   TIME INCREMENTATION IS USED
          STEP AMPLITUDE IS                                    RAMP

 CONVERGENCE TOLERANCE PARAMETERS FOR FORCE    
     CRITERION FOR RESIDUAL FORCE     FOR A NONLINEAR PROBLEM          5.000E-03
     CRITERION FOR DISP.    CORRECTION IN A NONLINEAR PROBLEM          1.000E-02
     INITIAL VALUE OF TIME AVERAGE FORCE                               1.000E-02
     AVERAGE FORCE     IS TIME AVERAGE FORCE    
     ALTERNATE CRIT. FOR RESIDUAL FORCE     FOR A NONLINEAR PROBLEM    2.000E-02
     CRITERION FOR ZERO FORCE     RELATIVE TO TIME AVRG. FORCE         1.000E-05
     CRITERION FOR RESIDUAL FORCE     WHEN THERE IS ZERO FLUX          1.000E-05
     CRITERION FOR DISP.    CORRECTION WHEN THERE IS ZERO FLUX         1.000E-03
     CRITERION FOR RESIDUAL FORCE     FOR A LINEAR INCREMENT           1.000E-08
     FIELD CONVERSION RATIO                                             1.00    
     CRITERION FOR ZERO FORCE     REL. TO TIME AVRG. MAX. FORCE        1.000E-05
     CRITERION FOR ZERO DISP.    RELATIVE TO CHARACTERISTIC LENGTH     1.000E-08

 CONVERGENCE TOLERANCE PARAMETERS FOR MOMENT   
     CRITERION FOR RESIDUAL MOMENT    FOR A NONLINEAR PROBLEM          5.000E-03
     CRITERION FOR ROTATION CORRECTION IN A NONLINEAR PROBLEM          1.000E-02
     INITIAL VALUE OF TIME AVERAGE MOMENT                              1.000E-02
     AVERAGE MOMENT    IS TIME AVERAGE MOMENT   
     ALTERNATE CRIT. FOR RESIDUAL MOMENT    FOR A NONLINEAR PROBLEM    2.000E-02
     CRITERION FOR ZERO MOMENT    RELATIVE TO TIME AVRG. MOMENT        1.000E-05
     CRITERION FOR RESIDUAL MOMENT    WHEN THERE IS ZERO FLUX          1.000E-05
     CRITERION FOR ROTATION CORRECTION WHEN THERE IS ZERO FLUX         1.000E-03
     CRITERION FOR RESIDUAL MOMENT    FOR A LINEAR INCREMENT           1.000E-08
     FIELD CONVERSION RATIO                                             1.00    
     CRITERION FOR ZERO MOMENT    REL. TO TIME AVRG. MAX. MOMENT       1.000E-05

     VOLUMETRIC STRAIN COMPATIBILITY TOLERANCE FOR HYBRID SOLIDS       1.000E-05
     AXIAL STRAIN COMPATIBILITY TOLERANCE FOR HYBRID BEAMS             1.000E-05
     TRANS. SHEAR STRAIN COMPATIBILITY TOLERANCE FOR HYBRID BEAMS      1.000E-05
     SOFT CONTACT CONSTRAINT COMPATIBILITY TOLERANCE FOR P>P0          5.000E-03
     SOFT CONTACT CONSTRAINT COMPATIBILITY TOLERANCE FOR P=0.0         0.100    
     CONTACT FORCE ERROR TOLERANCE FOR CONVERT SDI=YES                 1.00    
     DISPLACEMENT COMPATIBILITY TOLERANCE FOR DCOUP ELEMENTS           1.000E-05
     ROTATION COMPATIBILITY TOLERANCE FOR DCOUP ELEMENTS               1.000E-05

 EQUILIBRIUM WILL BE CHECKED FOR SEVERE DISCONTINUITY ITERATIONS

 TIME INCREMENTATION CONTROL PARAMETERS:
     FIRST EQUILIBRIUM ITERATION FOR CONSECUTIVE DIVERGENCE CHECK              4
     EQUILIBRIUM ITERATION AT WHICH LOG. CONVERGENCE RATE CHECK BEGINS         8
     EQUILIBRIUM ITERATION AFTER WHICH ALTERNATE RESIDUAL IS USED              9
     MAXIMUM EQUILIBRIUM ITERATIONS ALLOWED                                   16
     EQUILIBRIUM ITERATION COUNT FOR CUT-BACK IN NEXT INCREMENT               10
     MAXIMUM EQUILIB. ITERS IN TWO INCREMENTS FOR TIME INCREMENT INCREASE      4
     MAXIMUM ITERATIONS FOR SEVERE DISCONTINUITIES                            50
 *** MAXIMUM ATTEMPTS ALLOWED IN AN INCREMENT                                 25
     MAXIMUM DISCON. ITERS IN TWO INCREMENTS FOR TIME INCREMENT INCREASE      50
     MAXIMUM CONTACT AUGMENTATIONS FOR *SURFACE BEHAVIOR,AUGMENTED LAGRANGE   50
     CUT-BACK FACTOR AFTER DIVERGENCE                                 0.2500    
     CUT-BACK FACTOR FOR TOO SLOW CONVERGENCE                         0.5000    
     CUT-BACK FACTOR AFTER TOO MANY EQUILIBRIUM ITERATIONS            0.7500    
     CUT-BACK FACTOR AFTER TOO MANY SEVERE DISCONTINUITY ITERATIONS   0.2500    
     CUT-BACK FACTOR AFTER PROBLEMS IN ELEMENT ASSEMBLY               0.2500    
     INCREASE FACTOR AFTER TWO INCREMENTS THAT CONVERGE QUICKLY        1.500    
     MAX. TIME INCREMENT INCREASE FACTOR ALLOWED                       1.500    
     MAX. TIME INCREMENT INCREASE FACTOR ALLOWED (DYNAMICS)            1.250    
     MAX. TIME INCREMENT INCREASE FACTOR ALLOWED (DIFFUSION)           2.000    
     MINIMUM TIME INCREMENT RATIO FOR EXTRAPOLATION TO OCCUR          0.1000    
     MAX. RATIO OF TIME INCREMENT TO STABILITY LIMIT                   1.000    
     FRACTION OF STABILITY LIMIT FOR NEW TIME INCREMENT               0.9500    
     TIME INCREMENT INCREASE FACTOR BEFORE A TIME POINT                1.000    

 *** INDICATES USE OF NON-DEFAULT TIME INCREMENTATION CONTROL PARAMETER
     SELECTED WITH *CONTROLS
     GLOBAL STABILIZATION CONTROL IS NOT USED

          PRINT OF INCREMENT NUMBER, TIME, ETC., EVERY    1  INCREMENTS

     THE MAXIMUM NUMBER OF INCREMENTS IN THIS STEP IS                     250

          LARGE DISPLACEMENT THEORY WILL BE USED

     LINEAR EXTRAPOLATION WILL BE USED

     CHARACTERISTIC ELEMENT LENGTH     0.855    

     DETAILS REGARDING ACTUAL SOLUTION WAVEFRONT REQUESTED

     DETAILED OUTPUT OF DIAGNOSTICS TO DATABASE REQUESTED

     PRINT OF INCREMENT NUMBER, TIME, ETC., TO THE MESSAGE FILE EVERY     1  INCREMENTS
          THE INITIAL TIME INCREMENT WAS REDUCED TO   1.235E-02 TO MEET THE NEXT OUTPUT TIME POINT

     COLLECTING MODEL CONSTRAINT INFORMATION FOR OVERCONSTRAINT CHECKS

     COLLECTING STEP CONSTRAINT INFORMATION FOR OVERCONSTRAINT CHECKS


  INCREMENT     1 STARTS. ATTEMPT NUMBER  1, TIME INCREMENT  1.235E-02

  NUMBER OF EQUATIONS =      3111     NUMBER OF RHS =    1
  NUMBER OF FLOATING PT. OPERATIONS =  7.18E+06

     CHECK POINT   START OF SOLVER    

     CHECK POINT  END OF SOLVER       

       ELAPSED USER TIME (SEC)      =  1.00000E-02
       ELAPSED SYSTEM TIME (SEC)    =   0.0000    
       ELAPSED TOTAL CPU TIME (SEC) =  1.00000E-02
       ELAPSED WALLCLOCK TIME (SEC) =          0

               CONVERGENCE CHECKS FOR EQUILIBRIUM ITERATION     1


 AVERAGE FORCE                      3.357E-04   TIME AVG. FORCE       3.357E-04
 LARGEST RESIDUAL FORCE            -2.961E-06   AT NODE        497   DOF  1
   INSTANCE: PART-1-1                                                                        
 LARGEST INCREMENT OF DISP.         5.051E-02   AT NODE        517   DOF  2
   INSTANCE: PART-1-1                                                                        
 LARGEST CORRECTION TO DISP.        5.051E-02   AT NODE        517   DOF  2
   INSTANCE: PART-1-1                                                                        
          FORCE     EQUILIBRIUM NOT ACHIEVED WITHIN TOLERANCE.

 AVERAGE MOMENT                     1.716E-07   TIME AVG. MOMENT      1.716E-07
 LARGEST RESIDUAL MOMENT            4.256E-08   AT NODE        511   DOF  6
   INSTANCE: PART-1-1                                                                        
 LARGEST INCREMENT OF ROTATION     -2.620E-04   AT NODE        520   DOF  6
   INSTANCE: PART-1-1                                                                        
 LARGEST CORRECTION TO ROTATION    -2.620E-04   AT NODE        520   DOF  6
   INSTANCE: PART-1-1                                                                        
          MOMENT    EQUILIBRIUM NOT ACHIEVED WITHIN TOLERANCE.

  NUMBER OF EQUATIONS =      3111     NUMBER OF RHS =    1
  NUMBER OF FLOATING PT. OPERATIONS =  7.18E+06

     CHECK POINT   START OF SOLVER    

     CHECK POINT  END OF SOLVER       

       ELAPSED USER TIME (SEC)      =  1.00000E-02
       ELAPSED SYSTEM TIME (SEC)    =   0.0000    
       ELAPSED TOTAL CPU TIME (SEC) =  1.00000E-02
       ELAPSED WALLCLOCK TIME (SEC) =          0

               CONVERGENCE CHECKS FOR EQUILIBRIUM ITERATION     2


 AVERAGE FORCE                      3.358E-04   TIME AVG. FORCE       3.358E-04
 LARGEST RESIDUAL FORCE             8.218E-11   AT NODE        261   DOF  1
   INSTANCE: PART-1-1                                                                        
 LARGEST INCREMENT OF DISP.         5.051E-02   AT NODE        517   DOF  2
   INSTANCE: PART-1-1                                                                        
 LARGEST CORRECTION TO DISP.        3.379E-05   AT NODE        376   DOF  1
   INSTANCE: PART-1-1                                                                        
          THE FORCE     EQUILIBRIUM EQUATIONS HAVE CONVERGED

 AVERAGE MOMENT                     1.696E-07   TIME AVG. MOMENT      1.696E-07
 LARGEST RESIDUAL MOMENT            6.843E-13   AT NODE        250   DOF  6
   INSTANCE: PART-1-1                                                                        
 LARGEST INCREMENT OF ROTATION     -2.617E-04   AT NODE        520   DOF  6
   INSTANCE: PART-1-1                                                                        
 LARGEST CORRECTION TO ROTATION    -2.422E-06   AT NODE        258   DOF  6
   INSTANCE: PART-1-1                                                                        
          THE MOMENT    EQUILIBRIUM EQUATIONS HAVE CONVERGED
          TIME INCREMENT REDUCED TO   1.235E-02 TO MEET NEXT OUTPUT TIME POINT

 ITERATION SUMMARY FOR THE INCREMENT:   2 TOTAL ITERATIONS, OF WHICH
   0 ARE SEVERE DISCONTINUITY ITERATIONS AND  2 ARE EQUILIBRIUM ITERATIONS.

 TIME INCREMENT COMPLETED  1.235E-02,  FRACTION OF STEP COMPLETED  1.235E-02
 STEP TIME COMPLETED       1.235E-02,  TOTAL TIME COMPLETED        1.235E-02


  INCREMENT     2 STARTS. ATTEMPT NUMBER  1, TIME INCREMENT  1.235E-02

  NUMBER OF EQUATIONS =      3111     NUMBER OF RHS =    1
  NUMBER OF FLOATING PT. OPERATIONS =  7.18E+06

     CHECK POINT   START OF SOLVER    

     CHECK POINT  END OF SOLVER       

       ELAPSED USER TIME (SEC)      =  1.00000E-02
       ELAPSED SYSTEM TIME (SEC)    =   0.0000    
       ELAPSED TOTAL CPU TIME (SEC) =  1.00000E-02
       ELAPSED WALLCLOCK TIME (SEC) =          0

               CONVERGENCE CHECKS FOR EQUILIBRIUM ITERATION     1


 AVERAGE FORCE                      2.015E-03   TIME AVG. FORCE       1.175E-03
 LARGEST RESIDUAL FORCE             2.441E-09   AT NODE        506   DOF  1
   INSTANCE: PART-1-1                                                                        
 LARGEST INCREMENT OF DISP.         5.051E-02   AT NODE        517   DOF  2
   INSTANCE: PART-1-1                                                                        
 LARGEST CORRECTION TO DISP.        6.249E-05   AT NODE        376   DOF  1
   INSTANCE: PART-1-1                                                                        
          THE FORCE     EQUILIBRIUM EQUATIONS HAVE CONVERGED

 AVERAGE MOMENT                     2.380E-06   TIME AVG. MOMENT      1.275E-06
 LARGEST RESIDUAL MOMENT            2.540E-12   AT NODE        250   DOF  6
   INSTANCE: PART-1-1                                                                        
 LARGEST INCREMENT OF ROTATION     -2.610E-04   AT NODE          1   DOF  6
   INSTANCE: PART-1-1                                                                        
 LARGEST CORRECTION TO ROTATION    -4.423E-06   AT NODE        263   DOF  6
   INSTANCE: PART-1-1                                                                        
 ESTIMATE OF ROTATION CORRECTION   -1.325E-10
 MOMENT    EQUILIB. ACCEPTED BASED ON SMALL RESIDUAL AND ESTIMATED CORRECTION
          TIME INCREMENT MAY NOW INCREASE TO    0.150    
          TIME INCREMENT REDUCED TO   1.235E-02 TO MEET NEXT OUTPUT TIME POINT

 ITERATION SUMMARY FOR THE INCREMENT:   1 TOTAL ITERATIONS, OF WHICH
   0 ARE SEVERE DISCONTINUITY ITERATIONS AND  1 ARE EQUILIBRIUM ITERATIONS.

 TIME INCREMENT COMPLETED  1.235E-02,  FRACTION OF STEP COMPLETED  2.469E-02
 STEP TIME COMPLETED       2.469E-02,  TOTAL TIME COMPLETED        2.469E-02


  INCREMENT     3 STARTS. ATTEMPT NUMBER  1, TIME INCREMENT  1.235E-02

  NUMBER OF EQUATIONS =      3111     NUMBER OF RHS =    1
  NUMBER OF FLOATING PT. OPERATIONS =  7.18E+06

     CHECK POINT   START OF SOLVER    

     CHECK POINT  END OF SOLVER       

       ELAPSED USER TIME (SEC)      =  1.00000E-02
       ELAPSED SYSTEM TIME (SEC)    =   0.0000    
       ELAPSED TOTAL CPU TIME (SEC) =  1.00000E-02
       ELAPSED WALLCLOCK TIME (SEC) =          0

               CONVERGENCE CHECKS FOR EQUILIBRIUM ITERATION     1


 AVERAGE FORCE                      3.020E-03   TIME AVG. FORCE       1.790E-03
 LARGEST RESIDUAL FORCE            -2.073E-09   AT NODE         15   DOF  1
   INSTANCE: PART-1-1                                                                        
 LARGEST INCREMENT OF DISP.         5.050E-02   AT NODE        517   DOF  2
   INSTANCE: PART-1-1                                                                        
 LARGEST CORRECTION TO DISP.       -4.601E-05   AT NODE        141   DOF  1
   INSTANCE: PART-1-1                                                                        
          THE FORCE     EQUILIBRIUM EQUATIONS HAVE CONVERGED

 AVERAGE MOMENT                     3.495E-06   TIME AVG. MOMENT      2.015E-06
 LARGEST RESIDUAL MOMENT           -1.760E-12   AT NODE        470   DOF  6
   INSTANCE: PART-1-1                                                                        
 LARGEST INCREMENT OF ROTATION     -2.604E-04   AT NODE        520   DOF  6
   INSTANCE: PART-1-1                                                                        
 LARGEST CORRECTION TO ROTATION    -3.114E-06   AT NODE        262   DOF  6
   INSTANCE: PART-1-1                                                                        
 ESTIMATE OF ROTATION CORRECTION    6.514E-11
 MOMENT    EQUILIB. ACCEPTED BASED ON SMALL RESIDUAL AND ESTIMATED CORRECTION
          TIME INCREMENT MAY NOW INCREASE TO    0.150    
          TIME INCREMENT REDUCED TO   1.235E-02 TO MEET NEXT OUTPUT TIME POINT

 ITERATION SUMMARY FOR THE INCREMENT:   1 TOTAL ITERATIONS, OF WHICH
   0 ARE SEVERE DISCONTINUITY ITERATIONS AND  1 ARE EQUILIBRIUM ITERATIONS.

 TIME INCREMENT COMPLETED  1.235E-02,  FRACTION OF STEP COMPLETED  3.704E-02
 STEP TIME COMPLETED       3.704E-02,  TOTAL TIME COMPLETED        3.704E-02


  INCREMENT     4 STARTS. ATTEMPT NUMBER  1, TIME INCREMENT  1.235E-02

  NUMBER OF EQUATIONS =      3111     NUMBER OF RHS =    1
  NUMBER OF FLOATING PT. OPERATIONS =  7.18E+06

     CHECK POINT   START OF SOLVER    

     CHECK POINT  END OF SOLVER       

       ELAPSED USER TIME (SEC)      =  1.00000E-02
       ELAPSED SYSTEM TIME (SEC)    =   0.0000    
       ELAPSED TOTAL CPU TIME (SEC) =  1.00000E-02
       ELAPSED WALLCLOCK TIME (SEC) =          0

               CONVERGENCE CHECKS FOR EQUILIBRIUM ITERATION     1


 AVERAGE FORCE                      4.025E-03   TIME AVG. FORCE       2.349E-03
 LARGEST RESIDUAL FORCE             1.992E-09   AT NODE        506   DOF  1
   INSTANCE: PART-1-1                                                                        
 LARGEST INCREMENT OF DISP.         5.051E-02   AT NODE        517   DOF  2
   INSTANCE: PART-1-1                                                                        
 LARGEST CORRECTION TO DISP.        4.318E-05   AT NODE        380   DOF  1
   INSTANCE: PART-1-1                                                                        
          THE FORCE     EQUILIBRIUM EQUATIONS HAVE CONVERGED

 AVERAGE MOMENT                     4.599E-06   TIME AVG. MOMENT      2.661E-06
 LARGEST RESIDUAL MOMENT            1.652E-12   AT NODE        267   DOF  6
   INSTANCE: PART-1-1                                                                        
 LARGEST INCREMENT OF ROTATION     -2.599E-04   AT NODE          1   DOF  6
   INSTANCE: PART-1-1                                                                        
 LARGEST CORRECTION TO ROTATION    -2.916E-06   AT NODE        258   DOF  6
   INSTANCE: PART-1-1                                                                        
 ESTIMATE OF ROTATION CORRECTION   -5.762E-11
 MOMENT    EQUILIB. ACCEPTED BASED ON SMALL RESIDUAL AND ESTIMATED CORRECTION
          TIME INCREMENT MAY NOW INCREASE TO    0.150    
          TIME INCREMENT REDUCED TO   1.235E-02 TO MEET NEXT OUTPUT TIME POINT

 ITERATION SUMMARY FOR THE INCREMENT:   1 TOTAL ITERATIONS, OF WHICH
   0 ARE SEVERE DISCONTINUITY ITERATIONS AND  1 ARE EQUILIBRIUM ITERATIONS.

 TIME INCREMENT COMPLETED  1.235E-02,  FRACTION OF STEP COMPLETED  4.938E-02
 STEP TIME COMPLETED       4.938E-02,  TOTAL TIME COMPLETED        4.938E-02


  INCREMENT     5 STARTS. ATTEMPT NUMBER  1, TIME INCREMENT  1.235E-02

  NUMBER OF EQUATIONS =      3111     NUMBER OF RHS =    1
  NUMBER OF FLOATING PT. OPERATIONS =  7.18E+06

     CHECK POINT   START OF SOLVER    

     CHECK POINT  END OF SOLVER       

       ELAPSED USER TIME (SEC)      =  1.00000E-02
       ELAPSED SYSTEM TIME (SEC)    =   0.0000    
       ELAPSED TOTAL CPU TIME (SEC) =  1.00000E-02
       ELAPSED WALLCLOCK TIME (SEC) =          0

               CONVERGENCE CHECKS FOR EQUILIBRIUM ITERATION     1


 AVERAGE FORCE                      5.028E-03   TIME AVG. FORCE       2.885E-03
 LARGEST RESIDUAL FORCE            -1.824E-09   AT NODE         15   DOF  1
   INSTANCE: PART-1-1                                                                        
 LARGEST INCREMENT OF DISP.         5.051E-02   AT NODE        517   DOF  2
   INSTANCE: PART-1-1                                                                        
 LARGEST CORRECTION TO DISP.       -3.601E-05   AT NODE        137   DOF  1
   INSTANCE: PART-1-1                                                                        
          THE FORCE     EQUILIBRIUM EQUATIONS HAVE CONVERGED

 AVERAGE MOMENT                     5.697E-06   TIME AVG. MOMENT      3.268E-06
 LARGEST RESIDUAL MOMENT           -1.352E-12   AT NODE        474   DOF  6
   INSTANCE: PART-1-1                                                                        
 LARGEST INCREMENT OF ROTATION     -2.594E-04   AT NODE        520   DOF  6
   INSTANCE: PART-1-1                                                                        
 LARGEST CORRECTION TO ROTATION    -2.352E-06   AT NODE        263   DOF  6
   INSTANCE: PART-1-1                                                                        
          THE MOMENT    EQUILIBRIUM EQUATIONS HAVE CONVERGED
          TIME INCREMENT MAY NOW INCREASE TO    0.150    
          TIME INCREMENT REDUCED TO   1.235E-02 TO MEET NEXT OUTPUT TIME POINT

 ITERATION SUMMARY FOR THE INCREMENT:   1 TOTAL ITERATIONS, OF WHICH
   0 ARE SEVERE DISCONTINUITY ITERATIONS AND  1 ARE EQUILIBRIUM ITERATIONS.

 TIME INCREMENT COMPLETED  1.235E-02,  FRACTION OF STEP COMPLETED  6.173E-02
 STEP TIME COMPLETED       6.173E-02,  TOTAL TIME COMPLETED        6.173E-02


  INCREMENT     6 STARTS. ATTEMPT NUMBER  1, TIME INCREMENT  1.235E-02

  NUMBER OF EQUATIONS =      3111     NUMBER OF RHS =    1
  NUMBER OF FLOATING PT. OPERATIONS =  7.18E+06

     CHECK POINT   START OF SOLVER    

     CHECK POINT  END OF SOLVER       

       ELAPSED USER TIME (SEC)      =  1.00000E-02
       ELAPSED SYSTEM TIME (SEC)    =   0.0000    
       ELAPSED TOTAL CPU TIME (SEC) =  1.00000E-02
       ELAPSED WALLCLOCK TIME (SEC) =          0

               CONVERGENCE CHECKS FOR EQUILIBRIUM ITERATION     1


 AVERAGE FORCE                      6.025E-03   TIME AVG. FORCE       3.408E-03
 LARGEST RESIDUAL FORCE             1.709E-09   AT NODE        506   DOF  1
   INSTANCE: PART-1-1                                                                        
 LARGEST INCREMENT OF DISP.         5.051E-02   AT NODE        517   DOF  2
   INSTANCE: PART-1-1                                                                        
 LARGEST CORRECTION TO DISP.        3.145E-05   AT NODE        388   DOF  1
   INSTANCE: PART-1-1                                                                        
          THE FORCE     EQUILIBRIUM EQUATIONS HAVE CONVERGED

 AVERAGE MOMENT                     6.808E-06   TIME AVG. MOMENT      3.858E-06
 LARGEST RESIDUAL MOMENT           -1.207E-12   AT NODE        474   DOF  6
   INSTANCE: PART-1-1                                                                        
 LARGEST INCREMENT OF ROTATION     -2.589E-04   AT NODE          1   DOF  6
   INSTANCE: PART-1-1                                                                        
 LARGEST CORRECTION TO ROTATION     2.036E-06   AT NODE        470   DOF  6
   INSTANCE: PART-1-1                                                                        
          THE MOMENT    EQUILIBRIUM EQUATIONS HAVE CONVERGED
          TIME INCREMENT MAY NOW INCREASE TO    0.150    
          TIME INCREMENT REDUCED TO   1.235E-02 TO MEET NEXT OUTPUT TIME POINT

 ITERATION SUMMARY FOR THE INCREMENT:   1 TOTAL ITERATIONS, OF WHICH
   0 ARE SEVERE DISCONTINUITY ITERATIONS AND  1 ARE EQUILIBRIUM ITERATIONS.

 TIME INCREMENT COMPLETED  1.235E-02,  FRACTION OF STEP COMPLETED  7.407E-02
 STEP TIME COMPLETED       7.407E-02,  TOTAL TIME COMPLETED        7.407E-02


  INCREMENT     7 STARTS. ATTEMPT NUMBER  1, TIME INCREMENT  1.235E-02

  NUMBER OF EQUATIONS =      3111     NUMBER OF RHS =    1
  NUMBER OF FLOATING PT. OPERATIONS =  7.18E+06

     CHECK POINT   START OF SOLVER    

     CHECK POINT  END OF SOLVER       

       ELAPSED USER TIME (SEC)      =  1.00000E-02
       ELAPSED SYSTEM TIME (SEC)    =   0.0000    
       ELAPSED TOTAL CPU TIME (SEC) =  1.00000E-02
       ELAPSED WALLCLOCK TIME (SEC) =          0

               CONVERGENCE CHECKS FOR EQUILIBRIUM ITERATION     1


 AVERAGE FORCE                      7.033E-03   TIME AVG. FORCE       3.926E-03
 LARGEST RESIDUAL FORCE             1.604E-09   AT NODE        506   DOF  1
   INSTANCE: PART-1-1                                                                        
 LARGEST INCREMENT OF DISP.         5.051E-02   AT NODE        517   DOF  2
   INSTANCE: PART-1-1                                                                        
 LARGEST CORRECTION TO DISP.       -2.733E-05   AT NODE        133   DOF  1
   INSTANCE: PART-1-1                                                                        
          THE FORCE     EQUILIBRIUM EQUATIONS HAVE CONVERGED

 AVERAGE MOMENT                     7.927E-06   TIME AVG. MOMENT      4.439E-06
 LARGEST RESIDUAL MOMENT           -1.063E-12   AT NODE         43   DOF  6
   INSTANCE: PART-1-1                                                                        
 LARGEST INCREMENT OF ROTATION     -2.584E-04   AT NODE        520   DOF  6
   INSTANCE: PART-1-1                                                                        
 LARGEST CORRECTION TO ROTATION     1.814E-06   AT NODE         51   DOF  6
   INSTANCE: PART-1-1                                                                        
          THE MOMENT    EQUILIBRIUM EQUATIONS HAVE CONVERGED
          TIME INCREMENT MAY NOW INCREASE TO    0.150    
          TIME INCREMENT REDUCED TO   1.235E-02 TO MEET NEXT OUTPUT TIME POINT

 ITERATION SUMMARY FOR THE INCREMENT:   1 TOTAL ITERATIONS, OF WHICH
   0 ARE SEVERE DISCONTINUITY ITERATIONS AND  1 ARE EQUILIBRIUM ITERATIONS.

 TIME INCREMENT COMPLETED  1.235E-02,  FRACTION OF STEP COMPLETED  8.642E-02
 STEP TIME COMPLETED       8.642E-02,  TOTAL TIME COMPLETED        8.642E-02


  INCREMENT     8 STARTS. ATTEMPT NUMBER  1, TIME INCREMENT  1.235E-02

  NUMBER OF EQUATIONS =      3111     NUMBER OF RHS =    1
  NUMBER OF FLOATING PT. OPERATIONS =  7.18E+06

     CHECK POINT   START OF SOLVER    

     CHECK POINT  END OF SOLVER       

       ELAPSED USER TIME (SEC)      =  1.00000E-02
       ELAPSED SYSTEM TIME (SEC)    =   0.0000    
       ELAPSED TOTAL CPU TIME (SEC) =  1.00000E-02
       ELAPSED WALLCLOCK TIME (SEC) =          0

               CONVERGENCE CHECKS FOR EQUILIBRIUM ITERATION     1


 AVERAGE FORCE                      8.034E-03   TIME AVG. FORCE       4.439E-03
 LARGEST RESIDUAL FORCE            -1.516E-09   AT NODE         15   DOF  1
   INSTANCE: PART-1-1                                                                        
 LARGEST INCREMENT OF DISP.         5.050E-02   AT NODE        517   DOF  2
   INSTANCE: PART-1-1                                                                        
 LARGEST CORRECTION TO DISP.        2.405E-05   AT NODE        392   DOF  1
   INSTANCE: PART-1-1                                                                        
          THE FORCE     EQUILIBRIUM EQUATIONS HAVE CONVERGED

 AVERAGE MOMENT                     9.025E-06   TIME AVG. MOMENT      5.013E-06
 LARGEST RESIDUAL MOMENT           -9.570E-13   AT NODE         43   DOF  6
   INSTANCE: PART-1-1                                                                        
 LARGEST INCREMENT OF ROTATION     -2.580E-04   AT NODE        520   DOF  6
   INSTANCE: PART-1-1                                                                        
 LARGEST CORRECTION TO ROTATION     1.637E-06   AT NODE        474   DOF  6
   INSTANCE: PART-1-1                                                                        
          THE MOMENT    EQUILIBRIUM EQUATIONS HAVE CONVERGED
          TIME INCREMENT MAY NOW INCREASE TO    0.150    
          TIME INCREMENT REDUCED TO   1.235E-02 TO MEET NEXT OUTPUT TIME POINT

 ITERATION SUMMARY FOR THE INCREMENT:   1 TOTAL ITERATIONS, OF WHICH
   0 ARE SEVERE DISCONTINUITY ITERATIONS AND  1 ARE EQUILIBRIUM ITERATIONS.

 TIME INCREMENT COMPLETED  1.235E-02,  FRACTION OF STEP COMPLETED  9.877E-02
 STEP TIME COMPLETED       9.877E-02,  TOTAL TIME COMPLETED        9.877E-02


  INCREMENT     9 STARTS. ATTEMPT NUMBER  1, TIME INCREMENT  1.235E-02

  NUMBER OF EQUATIONS =      3111     NUMBER OF RHS =    1
  NUMBER OF FLOATING PT. OPERATIONS =  7.18E+06

     CHECK POINT   START OF SOLVER    

     CHECK POINT  END OF SOLVER       

       ELAPSED USER TIME (SEC)      =   0.0000    
       ELAPSED SYSTEM TIME (SEC)    =   0.0000    
       ELAPSED TOTAL CPU TIME (SEC) =   0.0000    
       ELAPSED WALLCLOCK TIME (SEC) =          0

               CONVERGENCE CHECKS FOR EQUILIBRIUM ITERATION     1


 AVERAGE FORCE                      9.030E-03   TIME AVG. FORCE       4.950E-03
 LARGEST RESIDUAL FORCE            -1.439E-09   AT NODE         15   DOF  1
   INSTANCE: PART-1-1                                                                        
 LARGEST INCREMENT OF DISP.         5.050E-02   AT NODE        517   DOF  2
   INSTANCE: PART-1-1                                                                        
 LARGEST CORRECTION TO DISP.       -2.130E-05   AT NODE        129   DOF  1
   INSTANCE: PART-1-1                                                                        
          THE FORCE     EQUILIBRIUM EQUATIONS HAVE CONVERGED

 AVERAGE MOMENT                     1.016E-05   TIME AVG. MOMENT      5.584E-06
 LARGEST RESIDUAL MOMENT           -8.747E-13   AT NODE        482   DOF  6
   INSTANCE: PART-1-1                                                                        
 LARGEST INCREMENT OF ROTATION     -2.575E-04   AT NODE        520   DOF  6
   INSTANCE: PART-1-1                                                                        
 LARGEST CORRECTION TO ROTATION     1.488E-06   AT NODE         47   DOF  6
   INSTANCE: PART-1-1                                                                        
          THE MOMENT    EQUILIBRIUM EQUATIONS HAVE CONVERGED
          TIME INCREMENT MAY NOW INCREASE TO    0.150    
          TIME INCREMENT REDUCED TO   1.235E-02 TO MEET NEXT OUTPUT TIME POINT

 ITERATION SUMMARY FOR THE INCREMENT:   1 TOTAL ITERATIONS, OF WHICH
   0 ARE SEVERE DISCONTINUITY ITERATIONS AND  1 ARE EQUILIBRIUM ITERATIONS.

 TIME INCREMENT COMPLETED  1.235E-02,  FRACTION OF STEP COMPLETED  0.111    
 STEP TIME COMPLETED       0.111    ,  TOTAL TIME COMPLETED        0.111    


  INCREMENT    10 STARTS. ATTEMPT NUMBER  1, TIME INCREMENT  1.235E-02

  NUMBER OF EQUATIONS =      3111     NUMBER OF RHS =    1
  NUMBER OF FLOATING PT. OPERATIONS =  7.18E+06

     CHECK POINT   START OF SOLVER    

     CHECK POINT  END OF SOLVER       

       ELAPSED USER TIME (SEC)      =  1.00000E-02
       ELAPSED SYSTEM TIME (SEC)    =   0.0000    
       ELAPSED TOTAL CPU TIME (SEC) =  1.00000E-02
       ELAPSED WALLCLOCK TIME (SEC) =          0

               CONVERGENCE CHECKS FOR EQUILIBRIUM ITERATION     1


 AVERAGE FORCE                      1.003E-02   TIME AVG. FORCE       5.458E-03
 LARGEST RESIDUAL FORCE            -1.373E-09   AT NODE         15   DOF  1
   INSTANCE: PART-1-1                                                                        
 LARGEST INCREMENT OF DISP.         5.051E-02   AT NODE        517   DOF  2
   INSTANCE: PART-1-1                                                                        
 LARGEST CORRECTION TO DISP.        1.901E-05   AT NODE        396   DOF  1
   INSTANCE: PART-1-1                                                                        
          THE FORCE     EQUILIBRIUM EQUATIONS HAVE CONVERGED

 AVERAGE MOMENT                     1.130E-05   TIME AVG. MOMENT      6.155E-06
 LARGEST RESIDUAL MOMENT           -8.088E-13   AT NODE        482   DOF  6
   INSTANCE: PART-1-1                                                                        
 LARGEST INCREMENT OF ROTATION     -2.571E-04   AT NODE        520   DOF  6
   INSTANCE: PART-1-1                                                                        
 LARGEST CORRECTION TO ROTATION     1.360E-06   AT NODE        474   DOF  6
   INSTANCE: PART-1-1                                                                        
          THE MOMENT    EQUILIBRIUM EQUATIONS HAVE CONVERGED
          TIME INCREMENT MAY NOW INCREASE TO    0.150    
          TIME INCREMENT REDUCED TO   1.235E-02 TO MEET NEXT OUTPUT TIME POINT

 ITERATION SUMMARY FOR THE INCREMENT:   1 TOTAL ITERATIONS, OF WHICH
   0 ARE SEVERE DISCONTINUITY ITERATIONS AND  1 ARE EQUILIBRIUM ITERATIONS.

 TIME INCREMENT COMPLETED  1.235E-02,  FRACTION OF STEP COMPLETED  0.123    
 STEP TIME COMPLETED       0.123    ,  TOTAL TIME COMPLETED        0.123    


  INCREMENT    11 STARTS. ATTEMPT NUMBER  1, TIME INCREMENT  1.235E-02

  NUMBER OF EQUATIONS =      3111     NUMBER OF RHS =    1
  NUMBER OF FLOATING PT. OPERATIONS =  7.18E+06

     CHECK POINT   START OF SOLVER    

     CHECK POINT  END OF SOLVER       

       ELAPSED USER TIME (SEC)      =  1.00000E-02
       ELAPSED SYSTEM TIME (SEC)    =   0.0000    
       ELAPSED TOTAL CPU TIME (SEC) =  1.00000E-02
       ELAPSED WALLCLOCK TIME (SEC) =          0

               CONVERGENCE CHECKS FOR EQUILIBRIUM ITERATION     1


 AVERAGE FORCE                      1.102E-02   TIME AVG. FORCE       5.963E-03
 LARGEST RESIDUAL FORCE             1.314E-09   AT NODE        506   DOF  1
   INSTANCE: PART-1-1                                                                        
 LARGEST INCREMENT OF DISP.         5.050E-02   AT NODE        517   DOF  2
   INSTANCE: PART-1-1                                                                        
 LARGEST CORRECTION TO DISP.       -1.706E-05   AT NODE        125   DOF  1
   INSTANCE: PART-1-1                                                                        
          THE FORCE     EQUILIBRIUM EQUATIONS HAVE CONVERGED

 AVERAGE MOMENT                     1.242E-05   TIME AVG. MOMENT      6.725E-06
 LARGEST RESIDUAL MOMENT           -7.346E-13   AT NODE        478   DOF  6
   INSTANCE: PART-1-1                                                                        
 LARGEST INCREMENT OF ROTATION     -2.567E-04   AT NODE        520   DOF  6
   INSTANCE: PART-1-1                                                                        
 LARGEST CORRECTION TO ROTATION     1.254E-06   AT NODE         43   DOF  6
   INSTANCE: PART-1-1                                                                        
          THE MOMENT    EQUILIBRIUM EQUATIONS HAVE CONVERGED
          TIME INCREMENT MAY NOW INCREASE TO    0.150    
          TIME INCREMENT REDUCED TO   1.235E-02 TO MEET NEXT OUTPUT TIME POINT

 ITERATION SUMMARY FOR THE INCREMENT:   1 TOTAL ITERATIONS, OF WHICH
   0 ARE SEVERE DISCONTINUITY ITERATIONS AND  1 ARE EQUILIBRIUM ITERATIONS.

 TIME INCREMENT COMPLETED  1.235E-02,  FRACTION OF STEP COMPLETED  0.136    
 STEP TIME COMPLETED       0.136    ,  TOTAL TIME COMPLETED        0.136    


  INCREMENT    12 STARTS. ATTEMPT NUMBER  1, TIME INCREMENT  1.235E-02

  NUMBER OF EQUATIONS =      3111     NUMBER OF RHS =    1
  NUMBER OF FLOATING PT. OPERATIONS =  7.18E+06

     CHECK POINT   START OF SOLVER    

     CHECK POINT  END OF SOLVER       

       ELAPSED USER TIME (SEC)      =  1.00000E-02
       ELAPSED SYSTEM TIME (SEC)    =   0.0000    
       ELAPSED TOTAL CPU TIME (SEC) =  1.00000E-02
       ELAPSED WALLCLOCK TIME (SEC) =          0

               CONVERGENCE CHECKS FOR EQUILIBRIUM ITERATION     1


 AVERAGE FORCE                      1.202E-02   TIME AVG. FORCE       6.468E-03
 LARGEST RESIDUAL FORCE            -1.263E-09   AT NODE         15   DOF  1
   INSTANCE: PART-1-1                                                                        
 LARGEST INCREMENT OF DISP.         5.051E-02   AT NODE        517   DOF  2
   INSTANCE: PART-1-1                                                                        
 LARGEST CORRECTION TO DISP.        1.542E-05   AT NODE        400   DOF  1
   INSTANCE: PART-1-1                                                                        
          THE FORCE     EQUILIBRIUM EQUATIONS HAVE CONVERGED

 AVERAGE MOMENT                     1.357E-05   TIME AVG. MOMENT      7.295E-06
 LARGEST RESIDUAL MOMENT           -6.845E-13   AT NODE        486   DOF  6
   INSTANCE: PART-1-1                                                                        
 LARGEST INCREMENT OF ROTATION     -2.564E-04   AT NODE        520   DOF  6
   INSTANCE: PART-1-1                                                                        
 LARGEST CORRECTION TO ROTATION     1.162E-06   AT NODE         43   DOF  6
   INSTANCE: PART-1-1                                                                        
          THE MOMENT    EQUILIBRIUM EQUATIONS HAVE CONVERGED
          TIME INCREMENT MAY NOW INCREASE TO    0.150    
          TIME INCREMENT REDUCED TO   1.235E-02 TO MEET NEXT OUTPUT TIME POINT

 ITERATION SUMMARY FOR THE INCREMENT:   1 TOTAL ITERATIONS, OF WHICH
   0 ARE SEVERE DISCONTINUITY ITERATIONS AND  1 ARE EQUILIBRIUM ITERATIONS.

 TIME INCREMENT COMPLETED  1.235E-02,  FRACTION OF STEP COMPLETED  0.148    
 STEP TIME COMPLETED       0.148    ,  TOTAL TIME COMPLETED        0.148    


  INCREMENT    13 STARTS. ATTEMPT NUMBER  1, TIME INCREMENT  1.235E-02

  NUMBER OF EQUATIONS =      3111     NUMBER OF RHS =    1
  NUMBER OF FLOATING PT. OPERATIONS =  7.18E+06

     CHECK POINT   START OF SOLVER    

     CHECK POINT  END OF SOLVER       

       ELAPSED USER TIME (SEC)      =  1.00000E-02
       ELAPSED SYSTEM TIME (SEC)    =   0.0000    
       ELAPSED TOTAL CPU TIME (SEC) =  1.00000E-02
       ELAPSED WALLCLOCK TIME (SEC) =          0

               CONVERGENCE CHECKS FOR EQUILIBRIUM ITERATION     1


 AVERAGE FORCE                      1.301E-02   TIME AVG. FORCE       6.972E-03
 LARGEST RESIDUAL FORCE            -1.216E-09   AT NODE         15   DOF  1
   INSTANCE: PART-1-1                                                                        
 LARGEST INCREMENT OF DISP.         5.051E-02   AT NODE        517   DOF  2
   INSTANCE: PART-1-1                                                                        
 LARGEST CORRECTION TO DISP.       -1.400E-05   AT NODE        117   DOF  1
   INSTANCE: PART-1-1                                                                        
          THE FORCE     EQUILIBRIUM EQUATIONS HAVE CONVERGED

 AVERAGE MOMENT                     1.474E-05   TIME AVG. MOMENT      7.868E-06
 LARGEST RESIDUAL MOMENT           -6.413E-13   AT NODE        486   DOF  6
   INSTANCE: PART-1-1                                                                        
 LARGEST INCREMENT OF ROTATION     -2.560E-04   AT NODE        520   DOF  6
   INSTANCE: PART-1-1                                                                        
 LARGEST CORRECTION TO ROTATION     1.080E-06   AT NODE         43   DOF  6
   INSTANCE: PART-1-1                                                                        
          THE MOMENT    EQUILIBRIUM EQUATIONS HAVE CONVERGED
          TIME INCREMENT MAY NOW INCREASE TO    0.150    
          TIME INCREMENT REDUCED TO   1.235E-02 TO MEET NEXT OUTPUT TIME POINT

 ITERATION SUMMARY FOR THE INCREMENT:   1 TOTAL ITERATIONS, OF WHICH
   0 ARE SEVERE DISCONTINUITY ITERATIONS AND  1 ARE EQUILIBRIUM ITERATIONS.

 TIME INCREMENT COMPLETED  1.235E-02,  FRACTION OF STEP COMPLETED  0.160    
 STEP TIME COMPLETED       0.160    ,  TOTAL TIME COMPLETED        0.160    


  INCREMENT    14 STARTS. ATTEMPT NUMBER  1, TIME INCREMENT  1.235E-02

  NUMBER OF EQUATIONS =      3111     NUMBER OF RHS =    1
  NUMBER OF FLOATING PT. OPERATIONS =  7.18E+06

     CHECK POINT   START OF SOLVER    

     CHECK POINT  END OF SOLVER       

       ELAPSED USER TIME (SEC)      =  1.00000E-02
       ELAPSED SYSTEM TIME (SEC)    =  1.00000E-02
       ELAPSED TOTAL CPU TIME (SEC) =  2.00000E-02
       ELAPSED WALLCLOCK TIME (SEC) =          0

               CONVERGENCE CHECKS FOR EQUILIBRIUM ITERATION     1


 AVERAGE FORCE                      1.400E-02   TIME AVG. FORCE       7.473E-03
 LARGEST RESIDUAL FORCE             1.175E-09   AT NODE        506   DOF  1
   INSTANCE: PART-1-1                                                                        
 LARGEST INCREMENT OF DISP.         5.051E-02   AT NODE        517   DOF  2
   INSTANCE: PART-1-1                                                                        
 LARGEST CORRECTION TO DISP.       -1.279E-05   AT NODE        117   DOF  1
   INSTANCE: PART-1-1                                                                        
          THE FORCE     EQUILIBRIUM EQUATIONS HAVE CONVERGED

 AVERAGE MOMENT                     1.590E-05   TIME AVG. MOMENT      8.442E-06
 LARGEST RESIDUAL MOMENT           -5.974E-13   AT NODE        482   DOF  6
   INSTANCE: PART-1-1                                                                        
 LARGEST INCREMENT OF ROTATION     -2.556E-04   AT NODE        520   DOF  6
   INSTANCE: PART-1-1                                                                        
 LARGEST CORRECTION TO ROTATION     1.011E-06   AT NODE         39   DOF  6
   INSTANCE: PART-1-1                                                                        
          THE MOMENT    EQUILIBRIUM EQUATIONS HAVE CONVERGED
          TIME INCREMENT MAY NOW INCREASE TO    0.150    
          TIME INCREMENT REDUCED TO   1.234E-02 TO MEET NEXT OUTPUT TIME POINT

 ITERATION SUMMARY FOR THE INCREMENT:   1 TOTAL ITERATIONS, OF WHICH
   0 ARE SEVERE DISCONTINUITY ITERATIONS AND  1 ARE EQUILIBRIUM ITERATIONS.

 TIME INCREMENT COMPLETED  1.235E-02,  FRACTION OF STEP COMPLETED  0.173    
 STEP TIME COMPLETED       0.173    ,  TOTAL TIME COMPLETED        0.173    


  INCREMENT    15 STARTS. ATTEMPT NUMBER  1, TIME INCREMENT  1.234E-02

  NUMBER OF EQUATIONS =      3111     NUMBER OF RHS =    1
  NUMBER OF FLOATING PT. OPERATIONS =  7.18E+06

     CHECK POINT   START OF SOLVER    

     CHECK POINT  END OF SOLVER       

       ELAPSED USER TIME (SEC)      =  1.00000E-02
       ELAPSED SYSTEM TIME (SEC)    =   0.0000    
       ELAPSED TOTAL CPU TIME (SEC) =  1.00000E-02
       ELAPSED WALLCLOCK TIME (SEC) =          0

               CONVERGENCE CHECKS FOR EQUILIBRIUM ITERATION     1


 AVERAGE FORCE                      1.499E-02   TIME AVG. FORCE       7.974E-03
 LARGEST RESIDUAL FORCE             1.137E-09   AT NODE        506   DOF  1
   INSTANCE: PART-1-1                                                                        
 LARGEST INCREMENT OF DISP.         5.050E-02   AT NODE        517   DOF  2
   INSTANCE: PART-1-1                                                                        
 LARGEST CORRECTION TO DISP.       -1.173E-05   AT NODE        113   DOF  1
   INSTANCE: PART-1-1                                                                        
          THE FORCE     EQUILIBRIUM EQUATIONS HAVE CONVERGED

 AVERAGE MOMENT                     1.708E-05   TIME AVG. MOMENT      9.018E-06
 LARGEST RESIDUAL MOMENT           -5.511E-13   AT NODE         35   DOF  6
   INSTANCE: PART-1-1                                                                        
 LARGEST INCREMENT OF ROTATION     -2.553E-04   AT NODE        520   DOF  6
   INSTANCE: PART-1-1                                                                        
 LARGEST CORRECTION TO ROTATION     9.501E-07   AT NODE         39   DOF  6
   INSTANCE: PART-1-1                                                                        
          THE MOMENT    EQUILIBRIUM EQUATIONS HAVE CONVERGED
          TIME INCREMENT MAY NOW INCREASE TO    0.150    
          TIME INCREMENT REDUCED TO   1.235E-02 TO MEET NEXT OUTPUT TIME POINT

 ITERATION SUMMARY FOR THE INCREMENT:   1 TOTAL ITERATIONS, OF WHICH
   0 ARE SEVERE DISCONTINUITY ITERATIONS AND  1 ARE EQUILIBRIUM ITERATIONS.

 TIME INCREMENT COMPLETED  1.234E-02,  FRACTION OF STEP COMPLETED  0.185    
 STEP TIME COMPLETED       0.185    ,  TOTAL TIME COMPLETED        0.185    


  INCREMENT    16 STARTS. ATTEMPT NUMBER  1, TIME INCREMENT  1.235E-02

  NUMBER OF EQUATIONS =      3111     NUMBER OF RHS =    1
  NUMBER OF FLOATING PT. OPERATIONS =  7.18E+06

     CHECK POINT   START OF SOLVER    

     CHECK POINT  END OF SOLVER       

       ELAPSED USER TIME (SEC)      =  1.00000E-02
       ELAPSED SYSTEM TIME (SEC)    =   0.0000    
       ELAPSED TOTAL CPU TIME (SEC) =  1.00000E-02
       ELAPSED WALLCLOCK TIME (SEC) =          0

               CONVERGENCE CHECKS FOR EQUILIBRIUM ITERATION     1


 AVERAGE FORCE                      1.597E-02   TIME AVG. FORCE       8.474E-03
 LARGEST RESIDUAL FORCE            -1.102E-09   AT NODE         15   DOF  1
   INSTANCE: PART-1-1                                                                        
 LARGEST INCREMENT OF DISP.         5.051E-02   AT NODE        517   DOF  2
   INSTANCE: PART-1-1                                                                        
 LARGEST CORRECTION TO DISP.       -1.081E-05   AT NODE        113   DOF  1
   INSTANCE: PART-1-1                                                                        
          THE FORCE     EQUILIBRIUM EQUATIONS HAVE CONVERGED

 AVERAGE MOMENT                     1.826E-05   TIME AVG. MOMENT      9.596E-06
 LARGEST RESIDUAL MOMENT           -5.262E-13   AT NODE        490   DOF  6
   INSTANCE: PART-1-1                                                                        
 LARGEST INCREMENT OF ROTATION     -2.549E-04   AT NODE        520   DOF  6
   INSTANCE: PART-1-1                                                                        
 LARGEST CORRECTION TO ROTATION     8.956E-07   AT NODE         39   DOF  6
   INSTANCE: PART-1-1                                                                        
          THE MOMENT    EQUILIBRIUM EQUATIONS HAVE CONVERGED
          TIME INCREMENT MAY NOW INCREASE TO    0.150    
          TIME INCREMENT REDUCED TO   1.235E-02 TO MEET NEXT OUTPUT TIME POINT

 ITERATION SUMMARY FOR THE INCREMENT:   1 TOTAL ITERATIONS, OF WHICH
   0 ARE SEVERE DISCONTINUITY ITERATIONS AND  1 ARE EQUILIBRIUM ITERATIONS.

 TIME INCREMENT COMPLETED  1.235E-02,  FRACTION OF STEP COMPLETED  0.198    
 STEP TIME COMPLETED       0.198    ,  TOTAL TIME COMPLETED        0.198    


  INCREMENT    17 STARTS. ATTEMPT NUMBER  1, TIME INCREMENT  1.235E-02

  NUMBER OF EQUATIONS =      3111     NUMBER OF RHS =    1
  NUMBER OF FLOATING PT. OPERATIONS =  7.18E+06

     CHECK POINT   START OF SOLVER    

     CHECK POINT  END OF SOLVER       

       ELAPSED USER TIME (SEC)      =  1.00000E-02
       ELAPSED SYSTEM TIME (SEC)    =   0.0000    
       ELAPSED TOTAL CPU TIME (SEC) =  1.00000E-02
       ELAPSED WALLCLOCK TIME (SEC) =          0

               CONVERGENCE CHECKS FOR EQUILIBRIUM ITERATION     1


 AVERAGE FORCE                      1.695E-02   TIME AVG. FORCE       8.973E-03
 LARGEST RESIDUAL FORCE             1.071E-09   AT NODE        506   DOF  1
   INSTANCE: PART-1-1                                                                        
 LARGEST INCREMENT OF DISP.         5.051E-02   AT NODE        517   DOF  2
   INSTANCE: PART-1-1                                                                        
 LARGEST CORRECTION TO DISP.       -9.996E-06   AT NODE        109   DOF  1
   INSTANCE: PART-1-1                                                                        
          THE FORCE     EQUILIBRIUM EQUATIONS HAVE CONVERGED

 AVERAGE MOMENT                     1.943E-05   TIME AVG. MOMENT      1.017E-05
 LARGEST RESIDUAL MOMENT           -4.956E-13   AT NODE        490   DOF  6
   INSTANCE: PART-1-1                                                                        
 LARGEST INCREMENT OF ROTATION     -2.546E-04   AT NODE        520   DOF  6
   INSTANCE: PART-1-1                                                                        
 LARGEST CORRECTION TO ROTATION     8.463E-07   AT NODE         39   DOF  6
   INSTANCE: PART-1-1                                                                        
          THE MOMENT    EQUILIBRIUM EQUATIONS HAVE CONVERGED
          TIME INCREMENT MAY NOW INCREASE TO    0.150    
          TIME INCREMENT REDUCED TO   1.234E-02 TO MEET NEXT OUTPUT TIME POINT

 ITERATION SUMMARY FOR THE INCREMENT:   1 TOTAL ITERATIONS, OF WHICH
   0 ARE SEVERE DISCONTINUITY ITERATIONS AND  1 ARE EQUILIBRIUM ITERATIONS.

 TIME INCREMENT COMPLETED  1.235E-02,  FRACTION OF STEP COMPLETED  0.210    
 STEP TIME COMPLETED       0.210    ,  TOTAL TIME COMPLETED        0.210    


  INCREMENT    18 STARTS. ATTEMPT NUMBER  1, TIME INCREMENT  1.234E-02

  NUMBER OF EQUATIONS =      3111     NUMBER OF RHS =    1
  NUMBER OF FLOATING PT. OPERATIONS =  7.18E+06

     CHECK POINT   START OF SOLVER    

     CHECK POINT  END OF SOLVER       

       ELAPSED USER TIME (SEC)      =   0.0000    
       ELAPSED SYSTEM TIME (SEC)    =   0.0000    
       ELAPSED TOTAL CPU TIME (SEC) =   0.0000    
       ELAPSED WALLCLOCK TIME (SEC) =          0

               CONVERGENCE CHECKS FOR EQUILIBRIUM ITERATION     1


 AVERAGE FORCE                      1.793E-02   TIME AVG. FORCE       9.470E-03
 LARGEST RESIDUAL FORCE             1.041E-09   AT NODE        506   DOF  1
   INSTANCE: PART-1-1                                                                        
 LARGEST INCREMENT OF DISP.         5.050E-02   AT NODE        517   DOF  2
   INSTANCE: PART-1-1                                                                        
 LARGEST CORRECTION TO DISP.       -9.284E-06   AT NODE        109   DOF  1
   INSTANCE: PART-1-1                                                                        
          THE FORCE     EQUILIBRIUM EQUATIONS HAVE CONVERGED

 AVERAGE MOMENT                     2.057E-05   TIME AVG. MOMENT      1.075E-05
 LARGEST RESIDUAL MOMENT           -4.742E-13   AT NODE        494   DOF  6
   INSTANCE: PART-1-1                                                                        
 LARGEST INCREMENT OF ROTATION     -2.542E-04   AT NODE        520   DOF  6
   INSTANCE: PART-1-1                                                                        
 LARGEST CORRECTION TO ROTATION     8.026E-07   AT NODE         35   DOF  6
   INSTANCE: PART-1-1                                                                        
          THE MOMENT    EQUILIBRIUM EQUATIONS HAVE CONVERGED
          TIME INCREMENT MAY NOW INCREASE TO    0.150    
          TIME INCREMENT REDUCED TO   1.235E-02 TO MEET NEXT OUTPUT TIME POINT

 ITERATION SUMMARY FOR THE INCREMENT:   1 TOTAL ITERATIONS, OF WHICH
   0 ARE SEVERE DISCONTINUITY ITERATIONS AND  1 ARE EQUILIBRIUM ITERATIONS.

 TIME INCREMENT COMPLETED  1.234E-02,  FRACTION OF STEP COMPLETED  0.222    
 STEP TIME COMPLETED       0.222    ,  TOTAL TIME COMPLETED        0.222    


  INCREMENT    19 STARTS. ATTEMPT NUMBER  1, TIME INCREMENT  1.235E-02

  NUMBER OF EQUATIONS =      3111     NUMBER OF RHS =    1
  NUMBER OF FLOATING PT. OPERATIONS =  7.18E+06

     CHECK POINT   START OF SOLVER    

     CHECK POINT  END OF SOLVER       

       ELAPSED USER TIME (SEC)      =  1.00000E-02
       ELAPSED SYSTEM TIME (SEC)    =   0.0000    
       ELAPSED TOTAL CPU TIME (SEC) =  1.00000E-02
       ELAPSED WALLCLOCK TIME (SEC) =          0

               CONVERGENCE CHECKS FOR EQUILIBRIUM ITERATION     1


 AVERAGE FORCE                      1.891E-02   TIME AVG. FORCE       9.967E-03
 LARGEST RESIDUAL FORCE            -1.014E-09   AT NODE         15   DOF  1
   INSTANCE: PART-1-1                                                                        
 LARGEST INCREMENT OF DISP.         5.051E-02   AT NODE        517   DOF  2
   INSTANCE: PART-1-1                                                                        
 LARGEST CORRECTION TO DISP.       -8.649E-06   AT NODE        109   DOF  1
   INSTANCE: PART-1-1                                                                        
          THE FORCE     EQUILIBRIUM EQUATIONS HAVE CONVERGED

 AVERAGE MOMENT                     2.178E-05   TIME AVG. MOMENT      1.133E-05
 LARGEST RESIDUAL MOMENT           -4.526E-13   AT NODE        490   DOF  6
   INSTANCE: PART-1-1                                                                        
 LARGEST INCREMENT OF ROTATION     -2.539E-04   AT NODE        520   DOF  6
   INSTANCE: PART-1-1                                                                        
 LARGEST CORRECTION TO ROTATION     7.645E-07   AT NODE         35   DOF  6
   INSTANCE: PART-1-1                                                                        
          THE MOMENT    EQUILIBRIUM EQUATIONS HAVE CONVERGED
          TIME INCREMENT MAY NOW INCREASE TO    0.150    
          TIME INCREMENT REDUCED TO   1.235E-02 TO MEET NEXT OUTPUT TIME POINT

 ITERATION SUMMARY FOR THE INCREMENT:   1 TOTAL ITERATIONS, OF WHICH
   0 ARE SEVERE DISCONTINUITY ITERATIONS AND  1 ARE EQUILIBRIUM ITERATIONS.

 TIME INCREMENT COMPLETED  1.235E-02,  FRACTION OF STEP COMPLETED  0.235    
 STEP TIME COMPLETED       0.235    ,  TOTAL TIME COMPLETED        0.235    


  INCREMENT    20 STARTS. ATTEMPT NUMBER  1, TIME INCREMENT  1.235E-02

  NUMBER OF EQUATIONS =      3111     NUMBER OF RHS =    1
  NUMBER OF FLOATING PT. OPERATIONS =  7.18E+06

     CHECK POINT   START OF SOLVER    

     CHECK POINT  END OF SOLVER       

       ELAPSED USER TIME (SEC)      =  1.00000E-02
       ELAPSED SYSTEM TIME (SEC)    =   0.0000    
       ELAPSED TOTAL CPU TIME (SEC) =  1.00000E-02
       ELAPSED WALLCLOCK TIME (SEC) =          0

               CONVERGENCE CHECKS FOR EQUILIBRIUM ITERATION     1


 AVERAGE FORCE                      1.989E-02   TIME AVG. FORCE       1.046E-02
 LARGEST RESIDUAL FORCE            -9.894E-10   AT NODE         15   DOF  1
   INSTANCE: PART-1-1                                                                        
 LARGEST INCREMENT OF DISP.         5.051E-02   AT NODE        517   DOF  2
   INSTANCE: PART-1-1                                                                        
 LARGEST CORRECTION TO DISP.       -8.087E-06   AT NODE        105   DOF  1
   INSTANCE: PART-1-1                                                                        
          THE FORCE     EQUILIBRIUM EQUATIONS HAVE CONVERGED

 AVERAGE MOMENT                     2.300E-05   TIME AVG. MOMENT      1.192E-05
 LARGEST RESIDUAL MOMENT           -4.366E-13   AT NODE        494   DOF  6
   INSTANCE: PART-1-1                                                                        
 LARGEST INCREMENT OF ROTATION     -2.536E-04   AT NODE        520   DOF  6
   INSTANCE: PART-1-1                                                                        
 LARGEST CORRECTION TO ROTATION     7.299E-07   AT NODE         36   DOF  6
   INSTANCE: PART-1-1                                                                        
          THE MOMENT    EQUILIBRIUM EQUATIONS HAVE CONVERGED
          TIME INCREMENT MAY NOW INCREASE TO    0.150    
          TIME INCREMENT REDUCED TO   1.235E-02 TO MEET NEXT OUTPUT TIME POINT

 ITERATION SUMMARY FOR THE INCREMENT:   1 TOTAL ITERATIONS, OF WHICH
   0 ARE SEVERE DISCONTINUITY ITERATIONS AND  1 ARE EQUILIBRIUM ITERATIONS.

 TIME INCREMENT COMPLETED  1.235E-02,  FRACTION OF STEP COMPLETED  0.247    
 STEP TIME COMPLETED       0.247    ,  TOTAL TIME COMPLETED        0.247    


  INCREMENT    21 STARTS. ATTEMPT NUMBER  1, TIME INCREMENT  1.235E-02

  NUMBER OF EQUATIONS =      3111     NUMBER OF RHS =    1
  NUMBER OF FLOATING PT. OPERATIONS =  7.18E+06

     CHECK POINT   START OF SOLVER    

     CHECK POINT  END OF SOLVER       

       ELAPSED USER TIME (SEC)      =   0.0000    
       ELAPSED SYSTEM TIME (SEC)    =   0.0000    
       ELAPSED TOTAL CPU TIME (SEC) =   0.0000    
       ELAPSED WALLCLOCK TIME (SEC) =          0

               CONVERGENCE CHECKS FOR EQUILIBRIUM ITERATION     1


 AVERAGE FORCE                      2.087E-02   TIME AVG. FORCE       1.096E-02
 LARGEST RESIDUAL FORCE             9.658E-10   AT NODE        506   DOF  1
   INSTANCE: PART-1-1                                                                        
 LARGEST INCREMENT OF DISP.         5.050E-02   AT NODE        517   DOF  2
   INSTANCE: PART-1-1                                                                        
 LARGEST CORRECTION TO DISP.       -7.580E-06   AT NODE        105   DOF  1
   INSTANCE: PART-1-1                                                                        
          THE FORCE     EQUILIBRIUM EQUATIONS HAVE CONVERGED

 AVERAGE MOMENT                     2.424E-05   TIME AVG. MOMENT      1.250E-05
 LARGEST RESIDUAL MOMENT           -4.135E-13   AT NODE        490   DOF  6
   INSTANCE: PART-1-1                                                                        
 LARGEST INCREMENT OF ROTATION     -2.533E-04   AT NODE        520   DOF  6
   INSTANCE: PART-1-1                                                                        
 LARGEST CORRECTION TO ROTATION     6.985E-07   AT NODE         36   DOF  6
   INSTANCE: PART-1-1                                                                        
          THE MOMENT    EQUILIBRIUM EQUATIONS HAVE CONVERGED
          TIME INCREMENT MAY NOW INCREASE TO    0.150    
          TIME INCREMENT REDUCED TO   1.235E-02 TO MEET NEXT OUTPUT TIME POINT

 ITERATION SUMMARY FOR THE INCREMENT:   1 TOTAL ITERATIONS, OF WHICH
   0 ARE SEVERE DISCONTINUITY ITERATIONS AND  1 ARE EQUILIBRIUM ITERATIONS.

 TIME INCREMENT COMPLETED  1.235E-02,  FRACTION OF STEP COMPLETED  0.259    
 STEP TIME COMPLETED       0.259    ,  TOTAL TIME COMPLETED        0.259    


  INCREMENT    22 STARTS. ATTEMPT NUMBER  1, TIME INCREMENT  1.235E-02

  NUMBER OF EQUATIONS =      3111     NUMBER OF RHS =    1
  NUMBER OF FLOATING PT. OPERATIONS =  7.18E+06

     CHECK POINT   START OF SOLVER    

     CHECK POINT  END OF SOLVER       

       ELAPSED USER TIME (SEC)      =  1.00000E-02
       ELAPSED SYSTEM TIME (SEC)    =   0.0000    
       ELAPSED TOTAL CPU TIME (SEC) =  1.00000E-02
       ELAPSED WALLCLOCK TIME (SEC) =          0

               CONVERGENCE CHECKS FOR EQUILIBRIUM ITERATION     1


 AVERAGE FORCE                      2.185E-02   TIME AVG. FORCE       1.145E-02
 LARGEST RESIDUAL FORCE             9.440E-10   AT NODE        506   DOF  1
   INSTANCE: PART-1-1                                                                        
 LARGEST INCREMENT OF DISP.         5.051E-02   AT NODE        517   DOF  2
   INSTANCE: PART-1-1                                                                        
 LARGEST CORRECTION TO DISP.       -7.127E-06   AT NODE        101   DOF  1
   INSTANCE: PART-1-1                                                                        
          THE FORCE     EQUILIBRIUM EQUATIONS HAVE CONVERGED

 AVERAGE MOMENT                     2.549E-05   TIME AVG. MOMENT      1.309E-05
 LARGEST RESIDUAL MOMENT           -3.943E-13   AT NODE        490   DOF  6
   INSTANCE: PART-1-1                                                                        
 LARGEST INCREMENT OF ROTATION     -2.530E-04   AT NODE        520   DOF  6
   INSTANCE: PART-1-1                                                                        
 LARGEST CORRECTION TO ROTATION     6.698E-07   AT NODE         36   DOF  6
   INSTANCE: PART-1-1                                                                        
          THE MOMENT    EQUILIBRIUM EQUATIONS HAVE CONVERGED
          TIME INCREMENT MAY NOW INCREASE TO    0.150    
          TIME INCREMENT REDUCED TO   1.235E-02 TO MEET NEXT OUTPUT TIME POINT

 ITERATION SUMMARY FOR THE INCREMENT:   1 TOTAL ITERATIONS, OF WHICH
   0 ARE SEVERE DISCONTINUITY ITERATIONS AND  1 ARE EQUILIBRIUM ITERATIONS.

 TIME INCREMENT COMPLETED  1.235E-02,  FRACTION OF STEP COMPLETED  0.272    
 STEP TIME COMPLETED       0.272    ,  TOTAL TIME COMPLETED        0.272    


  INCREMENT    23 STARTS. ATTEMPT NUMBER  1, TIME INCREMENT  1.235E-02

  NUMBER OF EQUATIONS =      3111     NUMBER OF RHS =    1
  NUMBER OF FLOATING PT. OPERATIONS =  7.18E+06

     CHECK POINT   START OF SOLVER    

     CHECK POINT  END OF SOLVER       

       ELAPSED USER TIME (SEC)      =  1.00000E-02
       ELAPSED SYSTEM TIME (SEC)    =   0.0000    
       ELAPSED TOTAL CPU TIME (SEC) =  1.00000E-02
       ELAPSED WALLCLOCK TIME (SEC) =          0

               CONVERGENCE CHECKS FOR EQUILIBRIUM ITERATION     1


 AVERAGE FORCE                      2.284E-02   TIME AVG. FORCE       1.195E-02
 LARGEST RESIDUAL FORCE            -9.233E-10   AT NODE         15   DOF  1
   INSTANCE: PART-1-1                                                                        
 LARGEST INCREMENT OF DISP.         5.051E-02   AT NODE        517   DOF  2
   INSTANCE: PART-1-1                                                                        
 LARGEST CORRECTION TO DISP.       -6.720E-06   AT NODE        101   DOF  1
   INSTANCE: PART-1-1                                                                        
          THE FORCE     EQUILIBRIUM EQUATIONS HAVE CONVERGED

 AVERAGE MOMENT                     2.664E-05   TIME AVG. MOMENT      1.368E-05
 LARGEST RESIDUAL MOMENT           -3.750E-13   AT NODE        494   DOF  6
   INSTANCE: PART-1-1                                                                        
 LARGEST INCREMENT OF ROTATION     -2.527E-04   AT NODE        520   DOF  6
   INSTANCE: PART-1-1                                                                        
 LARGEST CORRECTION TO ROTATION     6.431E-07   AT NODE         36   DOF  6
   INSTANCE: PART-1-1                                                                        
          THE MOMENT    EQUILIBRIUM EQUATIONS HAVE CONVERGED
          TIME INCREMENT MAY NOW INCREASE TO    0.150    
          TIME INCREMENT REDUCED TO   1.234E-02 TO MEET NEXT OUTPUT TIME POINT

 ITERATION SUMMARY FOR THE INCREMENT:   1 TOTAL ITERATIONS, OF WHICH
   0 ARE SEVERE DISCONTINUITY ITERATIONS AND  1 ARE EQUILIBRIUM ITERATIONS.

 TIME INCREMENT COMPLETED  1.235E-02,  FRACTION OF STEP COMPLETED  0.284    
 STEP TIME COMPLETED       0.284    ,  TOTAL TIME COMPLETED        0.284    


  INCREMENT    24 STARTS. ATTEMPT NUMBER  1, TIME INCREMENT  1.234E-02

  NUMBER OF EQUATIONS =      3111     NUMBER OF RHS =    1
  NUMBER OF FLOATING PT. OPERATIONS =  7.18E+06

     CHECK POINT   START OF SOLVER    

     CHECK POINT  END OF SOLVER       

       ELAPSED USER TIME (SEC)      =   0.0000    
       ELAPSED SYSTEM TIME (SEC)    =   0.0000    
       ELAPSED TOTAL CPU TIME (SEC) =   0.0000    
       ELAPSED WALLCLOCK TIME (SEC) =          0

               CONVERGENCE CHECKS FOR EQUILIBRIUM ITERATION     1


 AVERAGE FORCE                      2.380E-02   TIME AVG. FORCE       1.244E-02
 LARGEST RESIDUAL FORCE            -9.037E-10   AT NODE         15   DOF  1
   INSTANCE: PART-1-1                                                                        
 LARGEST INCREMENT OF DISP.         5.050E-02   AT NODE        517   DOF  2
   INSTANCE: PART-1-1                                                                        
 LARGEST CORRECTION TO DISP.       -6.346E-06   AT NODE        101   DOF  1
   INSTANCE: PART-1-1                                                                        
          THE FORCE     EQUILIBRIUM EQUATIONS HAVE CONVERGED

 AVERAGE MOMENT                     2.786E-05   TIME AVG. MOMENT      1.427E-05
 LARGEST RESIDUAL MOMENT           -3.674E-13   AT NODE        490   DOF  6
   INSTANCE: PART-1-1                                                                        
 LARGEST INCREMENT OF ROTATION     -2.523E-04   AT NODE        520   DOF  6
   INSTANCE: PART-1-1                                                                        
 LARGEST CORRECTION TO ROTATION     6.195E-07   AT NODE         32   DOF  6
   INSTANCE: PART-1-1                                                                        
          THE MOMENT    EQUILIBRIUM EQUATIONS HAVE CONVERGED
          TIME INCREMENT MAY NOW INCREASE TO    0.150    
          TIME INCREMENT REDUCED TO   1.235E-02 TO MEET NEXT OUTPUT TIME POINT

 ITERATION SUMMARY FOR THE INCREMENT:   1 TOTAL ITERATIONS, OF WHICH
   0 ARE SEVERE DISCONTINUITY ITERATIONS AND  1 ARE EQUILIBRIUM ITERATIONS.

 TIME INCREMENT COMPLETED  1.234E-02,  FRACTION OF STEP COMPLETED  0.296    
 STEP TIME COMPLETED       0.296    ,  TOTAL TIME COMPLETED        0.296    


  INCREMENT    25 STARTS. ATTEMPT NUMBER  1, TIME INCREMENT  1.235E-02

  NUMBER OF EQUATIONS =      3111     NUMBER OF RHS =    1
  NUMBER OF FLOATING PT. OPERATIONS =  7.18E+06

     CHECK POINT   START OF SOLVER    

     CHECK POINT  END OF SOLVER       

       ELAPSED USER TIME (SEC)      =  1.00000E-02
       ELAPSED SYSTEM TIME (SEC)    =   0.0000    
       ELAPSED TOTAL CPU TIME (SEC) =  1.00000E-02
       ELAPSED WALLCLOCK TIME (SEC) =          0

               CONVERGENCE CHECKS FOR EQUILIBRIUM ITERATION     1


 AVERAGE FORCE                      2.473E-02   TIME AVG. FORCE       1.293E-02
 LARGEST RESIDUAL FORCE            -8.854E-10   AT NODE         15   DOF  1
   INSTANCE: PART-1-1                                                                        
 LARGEST INCREMENT OF DISP.         5.051E-02   AT NODE        517   DOF  2
   INSTANCE: PART-1-1                                                                        
 LARGEST CORRECTION TO DISP.       -6.012E-06   AT NODE         97   DOF  1
   INSTANCE: PART-1-1                                                                        
          THE FORCE     EQUILIBRIUM EQUATIONS HAVE CONVERGED

 AVERAGE MOMENT                     2.921E-05   TIME AVG. MOMENT      1.487E-05
 LARGEST RESIDUAL MOMENT           -3.532E-13   AT NODE        486   DOF  6
   INSTANCE: PART-1-1                                                                        
 LARGEST INCREMENT OF ROTATION     -2.521E-04   AT NODE        520   DOF  6
   INSTANCE: PART-1-1                                                                        
 LARGEST CORRECTION TO ROTATION     5.984E-07   AT NODE         32   DOF  6
   INSTANCE: PART-1-1                                                                        
          THE MOMENT    EQUILIBRIUM EQUATIONS HAVE CONVERGED
          TIME INCREMENT MAY NOW INCREASE TO    0.150    
          TIME INCREMENT REDUCED TO   1.235E-02 TO MEET NEXT OUTPUT TIME POINT

 ITERATION SUMMARY FOR THE INCREMENT:   1 TOTAL ITERATIONS, OF WHICH
   0 ARE SEVERE DISCONTINUITY ITERATIONS AND  1 ARE EQUILIBRIUM ITERATIONS.

 TIME INCREMENT COMPLETED  1.235E-02,  FRACTION OF STEP COMPLETED  0.309    
 STEP TIME COMPLETED       0.309    ,  TOTAL TIME COMPLETED        0.309    


  INCREMENT    26 STARTS. ATTEMPT NUMBER  1, TIME INCREMENT  1.235E-02

  NUMBER OF EQUATIONS =      3111     NUMBER OF RHS =    1
  NUMBER OF FLOATING PT. OPERATIONS =  7.18E+06

     CHECK POINT   START OF SOLVER    

     CHECK POINT  END OF SOLVER       

       ELAPSED USER TIME (SEC)      =  1.00000E-02
       ELAPSED SYSTEM TIME (SEC)    =   0.0000    
       ELAPSED TOTAL CPU TIME (SEC) =  1.00000E-02
       ELAPSED WALLCLOCK TIME (SEC) =          0

               CONVERGENCE CHECKS FOR EQUILIBRIUM ITERATION     1


 AVERAGE FORCE                      2.574E-02   TIME AVG. FORCE       1.343E-02
 LARGEST RESIDUAL FORCE            -8.679E-10   AT NODE         15   DOF  1
   INSTANCE: PART-1-1                                                                        
 LARGEST INCREMENT OF DISP.         5.051E-02   AT NODE        517   DOF  2
   INSTANCE: PART-1-1                                                                        
 LARGEST CORRECTION TO DISP.       -5.706E-06   AT NODE         97   DOF  1
   INSTANCE: PART-1-1                                                                        
          THE FORCE     EQUILIBRIUM EQUATIONS HAVE CONVERGED

 AVERAGE MOMENT                     3.035E-05   TIME AVG. MOMENT      1.547E-05
 LARGEST RESIDUAL MOMENT           -3.393E-13   AT NODE        490   DOF  6
   INSTANCE: PART-1-1                                                                        
 LARGEST INCREMENT OF ROTATION     -2.518E-04   AT NODE        520   DOF  6
   INSTANCE: PART-1-1                                                                        
 LARGEST CORRECTION TO ROTATION     5.787E-07   AT NODE         32   DOF  6
   INSTANCE: PART-1-1                                                                        
          THE MOMENT    EQUILIBRIUM EQUATIONS HAVE CONVERGED
          TIME INCREMENT MAY NOW INCREASE TO    0.150    
          TIME INCREMENT REDUCED TO   1.234E-02 TO MEET NEXT OUTPUT TIME POINT

 ITERATION SUMMARY FOR THE INCREMENT:   1 TOTAL ITERATIONS, OF WHICH
   0 ARE SEVERE DISCONTINUITY ITERATIONS AND  1 ARE EQUILIBRIUM ITERATIONS.

 TIME INCREMENT COMPLETED  1.235E-02,  FRACTION OF STEP COMPLETED  0.321    
 STEP TIME COMPLETED       0.321    ,  TOTAL TIME COMPLETED        0.321    


  INCREMENT    27 STARTS. ATTEMPT NUMBER  1, TIME INCREMENT  1.234E-02

  NUMBER OF EQUATIONS =      3111     NUMBER OF RHS =    1
  NUMBER OF FLOATING PT. OPERATIONS =  7.18E+06

     CHECK POINT   START OF SOLVER    

     CHECK POINT  END OF SOLVER       

       ELAPSED USER TIME (SEC)      =  1.00000E-02
       ELAPSED SYSTEM TIME (SEC)    =   0.0000    
       ELAPSED TOTAL CPU TIME (SEC) =  1.00000E-02
       ELAPSED WALLCLOCK TIME (SEC) =          0

               CONVERGENCE CHECKS FOR EQUILIBRIUM ITERATION     1


 AVERAGE FORCE                      2.673E-02   TIME AVG. FORCE       1.392E-02
 LARGEST RESIDUAL FORCE            -8.510E-10   AT NODE         15   DOF  1
   INSTANCE: PART-1-1                                                                        
 LARGEST INCREMENT OF DISP.         5.050E-02   AT NODE        517   DOF  2
   INSTANCE: PART-1-1                                                                        
 LARGEST CORRECTION TO DISP.       -5.423E-06   AT NODE         97   DOF  1
   INSTANCE: PART-1-1                                                                        
          THE FORCE     EQUILIBRIUM EQUATIONS HAVE CONVERGED

 AVERAGE MOMENT                     3.160E-05   TIME AVG. MOMENT      1.606E-05
 LARGEST RESIDUAL MOMENT           -3.248E-13   AT NODE        494   DOF  6
   INSTANCE: PART-1-1                                                                        
 LARGEST INCREMENT OF ROTATION     -2.514E-04   AT NODE        520   DOF  6
   INSTANCE: PART-1-1                                                                        
 LARGEST CORRECTION TO ROTATION     5.601E-07   AT NODE         32   DOF  6
   INSTANCE: PART-1-1                                                                        
          THE MOMENT    EQUILIBRIUM EQUATIONS HAVE CONVERGED
          TIME INCREMENT MAY NOW INCREASE TO    0.150    
          TIME INCREMENT REDUCED TO   1.235E-02 TO MEET NEXT OUTPUT TIME POINT

 ITERATION SUMMARY FOR THE INCREMENT:   1 TOTAL ITERATIONS, OF WHICH
   0 ARE SEVERE DISCONTINUITY ITERATIONS AND  1 ARE EQUILIBRIUM ITERATIONS.

 TIME INCREMENT COMPLETED  1.234E-02,  FRACTION OF STEP COMPLETED  0.333    
 STEP TIME COMPLETED       0.333    ,  TOTAL TIME COMPLETED        0.333    


  INCREMENT    28 STARTS. ATTEMPT NUMBER  1, TIME INCREMENT  1.235E-02

  NUMBER OF EQUATIONS =      3111     NUMBER OF RHS =    1
  NUMBER OF FLOATING PT. OPERATIONS =  7.18E+06

     CHECK POINT   START OF SOLVER    

     CHECK POINT  END OF SOLVER       

       ELAPSED USER TIME (SEC)      =  1.00000E-02
       ELAPSED SYSTEM TIME (SEC)    =   0.0000    
       ELAPSED TOTAL CPU TIME (SEC) =  1.00000E-02
       ELAPSED WALLCLOCK TIME (SEC) =          0

               CONVERGENCE CHECKS FOR EQUILIBRIUM ITERATION     1


 AVERAGE FORCE                      2.764E-02   TIME AVG. FORCE       1.441E-02
 LARGEST RESIDUAL FORCE             8.352E-10   AT NODE        506   DOF  1
   INSTANCE: PART-1-1                                                                        
 LARGEST INCREMENT OF DISP.         5.051E-02   AT NODE        517   DOF  2
   INSTANCE: PART-1-1                                                                        
 LARGEST CORRECTION TO DISP.       -5.168E-06   AT NODE         93   DOF  1
   INSTANCE: PART-1-1                                                                        
          THE FORCE     EQUILIBRIUM EQUATIONS HAVE CONVERGED

 AVERAGE MOMENT                     3.281E-05   TIME AVG. MOMENT      1.666E-05
 LARGEST RESIDUAL MOMENT           -3.208E-13   AT NODE        498   DOF  6
   INSTANCE: PART-1-1                                                                        
 LARGEST INCREMENT OF ROTATION     -2.512E-04   AT NODE        520   DOF  6
   INSTANCE: PART-1-1                                                                        
 LARGEST CORRECTION TO ROTATION     5.428E-07   AT NODE         32   DOF  6
   INSTANCE: PART-1-1                                                                        
          THE MOMENT    EQUILIBRIUM EQUATIONS HAVE CONVERGED
          TIME INCREMENT MAY NOW INCREASE TO    0.150    
          TIME INCREMENT REDUCED TO   1.235E-02 TO MEET NEXT OUTPUT TIME POINT

 ITERATION SUMMARY FOR THE INCREMENT:   1 TOTAL ITERATIONS, OF WHICH
   0 ARE SEVERE DISCONTINUITY ITERATIONS AND  1 ARE EQUILIBRIUM ITERATIONS.

 TIME INCREMENT COMPLETED  1.235E-02,  FRACTION OF STEP COMPLETED  0.346    
 STEP TIME COMPLETED       0.346    ,  TOTAL TIME COMPLETED        0.346    


  INCREMENT    29 STARTS. ATTEMPT NUMBER  1, TIME INCREMENT  1.235E-02

  NUMBER OF EQUATIONS =      3111     NUMBER OF RHS =    1
  NUMBER OF FLOATING PT. OPERATIONS =  7.18E+06

     CHECK POINT   START OF SOLVER    

     CHECK POINT  END OF SOLVER       

       ELAPSED USER TIME (SEC)      =   0.0000    
       ELAPSED SYSTEM TIME (SEC)    =   0.0000    
       ELAPSED TOTAL CPU TIME (SEC) =   0.0000    
       ELAPSED WALLCLOCK TIME (SEC) =          0

               CONVERGENCE CHECKS FOR EQUILIBRIUM ITERATION     1


 AVERAGE FORCE                      2.863E-02   TIME AVG. FORCE       1.490E-02
 LARGEST RESIDUAL FORCE             8.203E-10   AT NODE        506   DOF  1
   INSTANCE: PART-1-1                                                                        
 LARGEST INCREMENT OF DISP.         5.051E-02   AT NODE        517   DOF  2
   INSTANCE: PART-1-1                                                                        
 LARGEST CORRECTION TO DISP.       -4.932E-06   AT NODE         93   DOF  1
   INSTANCE: PART-1-1                                                                        
          THE FORCE     EQUILIBRIUM EQUATIONS HAVE CONVERGED

 AVERAGE MOMENT                     3.407E-05   TIME AVG. MOMENT      1.726E-05
 LARGEST RESIDUAL MOMENT           -3.218E-13   AT NODE        494   DOF  6
   INSTANCE: PART-1-1                                                                        
 LARGEST INCREMENT OF ROTATION     -2.509E-04   AT NODE        520   DOF  6
   INSTANCE: PART-1-1                                                                        
 LARGEST CORRECTION TO ROTATION     5.265E-07   AT NODE         32   DOF  6
   INSTANCE: PART-1-1                                                                        
          THE MOMENT    EQUILIBRIUM EQUATIONS HAVE CONVERGED
          TIME INCREMENT MAY NOW INCREASE TO    0.150    
          TIME INCREMENT REDUCED TO   1.234E-02 TO MEET NEXT OUTPUT TIME POINT

 ITERATION SUMMARY FOR THE INCREMENT:   1 TOTAL ITERATIONS, OF WHICH
   0 ARE SEVERE DISCONTINUITY ITERATIONS AND  1 ARE EQUILIBRIUM ITERATIONS.

 TIME INCREMENT COMPLETED  1.235E-02,  FRACTION OF STEP COMPLETED  0.358    
 STEP TIME COMPLETED       0.358    ,  TOTAL TIME COMPLETED        0.358    


  INCREMENT    30 STARTS. ATTEMPT NUMBER  1, TIME INCREMENT  1.234E-02

  NUMBER OF EQUATIONS =      3111     NUMBER OF RHS =    1
  NUMBER OF FLOATING PT. OPERATIONS =  7.18E+06

     CHECK POINT   START OF SOLVER    

     CHECK POINT  END OF SOLVER       

       ELAPSED USER TIME (SEC)      =  1.00000E-02
       ELAPSED SYSTEM TIME (SEC)    =   0.0000    
       ELAPSED TOTAL CPU TIME (SEC) =  1.00000E-02
       ELAPSED WALLCLOCK TIME (SEC) =          0

               CONVERGENCE CHECKS FOR EQUILIBRIUM ITERATION     1


 AVERAGE FORCE                      2.958E-02   TIME AVG. FORCE       1.539E-02
 LARGEST RESIDUAL FORCE            -8.052E-10   AT NODE         15   DOF  1
   INSTANCE: PART-1-1                                                                        
 LARGEST INCREMENT OF DISP.         5.050E-02   AT NODE        517   DOF  2
   INSTANCE: PART-1-1                                                                        
 LARGEST CORRECTION TO DISP.       -4.713E-06   AT NODE         93   DOF  1
   INSTANCE: PART-1-1                                                                        
          THE FORCE     EQUILIBRIUM EQUATIONS HAVE CONVERGED

 AVERAGE MOMENT                     3.529E-05   TIME AVG. MOMENT      1.786E-05
 LARGEST RESIDUAL MOMENT           -2.937E-13   AT NODE         27   DOF  6
   INSTANCE: PART-1-1                                                                        
 LARGEST INCREMENT OF ROTATION     -2.506E-04   AT NODE        520   DOF  6
   INSTANCE: PART-1-1                                                                        
 LARGEST CORRECTION TO ROTATION     5.110E-07   AT NODE         32   DOF  6
   INSTANCE: PART-1-1                                                                        
          THE MOMENT    EQUILIBRIUM EQUATIONS HAVE CONVERGED
          TIME INCREMENT MAY NOW INCREASE TO    0.150    
          TIME INCREMENT REDUCED TO   1.235E-02 TO MEET NEXT OUTPUT TIME POINT

 ITERATION SUMMARY FOR THE INCREMENT:   1 TOTAL ITERATIONS, OF WHICH
   0 ARE SEVERE DISCONTINUITY ITERATIONS AND  1 ARE EQUILIBRIUM ITERATIONS.

 TIME INCREMENT COMPLETED  1.234E-02,  FRACTION OF STEP COMPLETED  0.370    
 STEP TIME COMPLETED       0.370    ,  TOTAL TIME COMPLETED        0.370    


  INCREMENT    31 STARTS. ATTEMPT NUMBER  1, TIME INCREMENT  1.235E-02

  NUMBER OF EQUATIONS =      3111     NUMBER OF RHS =    1
  NUMBER OF FLOATING PT. OPERATIONS =  7.18E+06

     CHECK POINT   START OF SOLVER    

     CHECK POINT  END OF SOLVER       

       ELAPSED USER TIME (SEC)      =  1.00000E-02
       ELAPSED SYSTEM TIME (SEC)    =   0.0000    
       ELAPSED TOTAL CPU TIME (SEC) =  1.00000E-02
       ELAPSED WALLCLOCK TIME (SEC) =          0

               CONVERGENCE CHECKS FOR EQUILIBRIUM ITERATION     1


 AVERAGE FORCE                      3.055E-02   TIME AVG. FORCE       1.588E-02
 LARGEST RESIDUAL FORCE             7.914E-10   AT NODE        506   DOF  1
   INSTANCE: PART-1-1                                                                        
 LARGEST INCREMENT OF DISP.         5.051E-02   AT NODE        517   DOF  2
   INSTANCE: PART-1-1                                                                        
 LARGEST CORRECTION TO DISP.       -4.512E-06   AT NODE         89   DOF  1
   INSTANCE: PART-1-1                                                                        
          THE FORCE     EQUILIBRIUM EQUATIONS HAVE CONVERGED

 AVERAGE MOMENT                     3.651E-05   TIME AVG. MOMENT      1.846E-05
 LARGEST RESIDUAL MOMENT           -2.970E-13   AT NODE        490   DOF  6
   INSTANCE: PART-1-1                                                                        
 LARGEST INCREMENT OF ROTATION     -2.503E-04   AT NODE        520   DOF  6
   INSTANCE: PART-1-1                                                                        
 LARGEST CORRECTION TO ROTATION     4.966E-07   AT NODE         32   DOF  6
   INSTANCE: PART-1-1                                                                        
          THE MOMENT    EQUILIBRIUM EQUATIONS HAVE CONVERGED
          TIME INCREMENT MAY NOW INCREASE TO    0.150    
          TIME INCREMENT REDUCED TO   1.235E-02 TO MEET NEXT OUTPUT TIME POINT

 ITERATION SUMMARY FOR THE INCREMENT:   1 TOTAL ITERATIONS, OF WHICH
   0 ARE SEVERE DISCONTINUITY ITERATIONS AND  1 ARE EQUILIBRIUM ITERATIONS.

 TIME INCREMENT COMPLETED  1.235E-02,  FRACTION OF STEP COMPLETED  0.383    
 STEP TIME COMPLETED       0.383    ,  TOTAL TIME COMPLETED        0.383    


  INCREMENT    32 STARTS. ATTEMPT NUMBER  1, TIME INCREMENT  1.235E-02

  NUMBER OF EQUATIONS =      3111     NUMBER OF RHS =    1
  NUMBER OF FLOATING PT. OPERATIONS =  7.18E+06

     CHECK POINT   START OF SOLVER    

     CHECK POINT  END OF SOLVER       

       ELAPSED USER TIME (SEC)      =   0.0000    
       ELAPSED SYSTEM TIME (SEC)    =   0.0000    
       ELAPSED TOTAL CPU TIME (SEC) =   0.0000    
       ELAPSED WALLCLOCK TIME (SEC) =          0

               CONVERGENCE CHECKS FOR EQUILIBRIUM ITERATION     1


 AVERAGE FORCE                      3.151E-02   TIME AVG. FORCE       1.637E-02
 LARGEST RESIDUAL FORCE             7.778E-10   AT NODE        506   DOF  1
   INSTANCE: PART-1-1                                                                        
 LARGEST INCREMENT OF DISP.         5.051E-02   AT NODE        517   DOF  2
[...]
          THE FORCE     EQUILIBRIUM EQUATIONS HAVE CONVERGED

 AVERAGE MOMENT                     9.558E-05   TIME AVG. MOMENT      4.539E-05
 LARGEST RESIDUAL MOMENT           -1.353E-13   AT NODE         23   DOF  6
   INSTANCE: PART-1-1                                                                        
 LARGEST INCREMENT OF ROTATION     -2.394E-04   AT NODE        520   DOF  6
   INSTANCE: PART-1-1                                                                        
 LARGEST CORRECTION TO ROTATION     2.756E-07   AT NODE        512   DOF  6
   INSTANCE: PART-1-1                                                                        
          THE MOMENT    EQUILIBRIUM RESPONSE WAS LINEAR IN THIS INCREMENT
          TIME INCREMENT REDUCED TO   1.234E-02 TO MEET NEXT OUTPUT TIME POINT

 ITERATION SUMMARY FOR THE INCREMENT:   1 TOTAL ITERATIONS, OF WHICH
   0 ARE SEVERE DISCONTINUITY ITERATIONS AND  1 ARE EQUILIBRIUM ITERATIONS.

 TIME INCREMENT COMPLETED  1.235E-02,  FRACTION OF STEP COMPLETED  0.901    
 STEP TIME COMPLETED       0.901    ,  TOTAL TIME COMPLETED        0.901    


  INCREMENT    74 STARTS. ATTEMPT NUMBER  1, TIME INCREMENT  1.234E-02

  NUMBER OF EQUATIONS =      3111     NUMBER OF RHS =    1
  NUMBER OF FLOATING PT. OPERATIONS =  7.18E+06

     CHECK POINT   START OF SOLVER    

     CHECK POINT  END OF SOLVER       

       ELAPSED USER TIME (SEC)      =   0.0000    
       ELAPSED SYSTEM TIME (SEC)    =   0.0000    
       ELAPSED TOTAL CPU TIME (SEC) =   0.0000    
       ELAPSED WALLCLOCK TIME (SEC) =          0

               CONVERGENCE CHECKS FOR EQUILIBRIUM ITERATION     1


 AVERAGE FORCE                      7.043E-02   TIME AVG. FORCE       3.640E-02
 LARGEST RESIDUAL FORCE            -5.391E-10   AT NODE          7   DOF  2
   INSTANCE: PART-1-1                                                                        
 LARGEST INCREMENT OF DISP.         5.050E-02   AT NODE        517   DOF  2
   INSTANCE: PART-1-1                                                                        
 LARGEST CORRECTION TO DISP.       -1.498E-06   AT NODE         65   DOF  1
   INSTANCE: PART-1-1                                                                        
          THE FORCE     EQUILIBRIUM EQUATIONS HAVE CONVERGED

 AVERAGE MOMENT                     9.758E-05   TIME AVG. MOMENT      4.610E-05
 LARGEST RESIDUAL MOMENT           -1.386E-13   AT NODE        502   DOF  6
   INSTANCE: PART-1-1                                                                        
 LARGEST INCREMENT OF ROTATION     -2.391E-04   AT NODE        520   DOF  6
   INSTANCE: PART-1-1                                                                        
 LARGEST CORRECTION TO ROTATION     2.739E-07   AT NODE          9   DOF  6
   INSTANCE: PART-1-1                                                                        
          THE MOMENT    EQUILIBRIUM RESPONSE WAS LINEAR IN THIS INCREMENT
          TIME INCREMENT REDUCED TO   1.235E-02 TO MEET NEXT OUTPUT TIME POINT

 ITERATION SUMMARY FOR THE INCREMENT:   1 TOTAL ITERATIONS, OF WHICH
   0 ARE SEVERE DISCONTINUITY ITERATIONS AND  1 ARE EQUILIBRIUM ITERATIONS.

 TIME INCREMENT COMPLETED  1.234E-02,  FRACTION OF STEP COMPLETED  0.914    
 STEP TIME COMPLETED       0.914    ,  TOTAL TIME COMPLETED        0.914    


  INCREMENT    75 STARTS. ATTEMPT NUMBER  1, TIME INCREMENT  1.235E-02

  NUMBER OF EQUATIONS =      3111     NUMBER OF RHS =    1
  NUMBER OF FLOATING PT. OPERATIONS =  7.18E+06

     CHECK POINT   START OF SOLVER    

     CHECK POINT  END OF SOLVER       

       ELAPSED USER TIME (SEC)      =  1.00000E-02
       ELAPSED SYSTEM TIME (SEC)    =   0.0000    
       ELAPSED TOTAL CPU TIME (SEC) =  1.00000E-02
       ELAPSED WALLCLOCK TIME (SEC) =          0

               CONVERGENCE CHECKS FOR EQUILIBRIUM ITERATION     1


 AVERAGE FORCE                      7.137E-02   TIME AVG. FORCE       3.687E-02
 LARGEST RESIDUAL FORCE             5.403E-10   AT NODE        514   DOF  2
   INSTANCE: PART-1-1                                                                        
 LARGEST INCREMENT OF DISP.         5.051E-02   AT NODE        517   DOF  2
   INSTANCE: PART-1-1                                                                        
 LARGEST CORRECTION TO DISP.       -1.474E-06   AT NODE         65   DOF  1
   INSTANCE: PART-1-1                                                                        
          THE FORCE     EQUILIBRIUM EQUATIONS HAVE CONVERGED

 AVERAGE MOMENT                     9.910E-05   TIME AVG. MOMENT      4.680E-05
 LARGEST RESIDUAL MOMENT           -1.387E-13   AT NODE        502   DOF  6
   INSTANCE: PART-1-1                                                                        
 LARGEST INCREMENT OF ROTATION     -2.389E-04   AT NODE        520   DOF  6
   INSTANCE: PART-1-1                                                                        
 LARGEST CORRECTION TO ROTATION     2.724E-07   AT NODE        512   DOF  6
   INSTANCE: PART-1-1                                                                        
          THE MOMENT    EQUILIBRIUM RESPONSE WAS LINEAR IN THIS INCREMENT
          TIME INCREMENT REDUCED TO   1.235E-02 TO MEET NEXT OUTPUT TIME POINT

 ITERATION SUMMARY FOR THE INCREMENT:   1 TOTAL ITERATIONS, OF WHICH
   0 ARE SEVERE DISCONTINUITY ITERATIONS AND  1 ARE EQUILIBRIUM ITERATIONS.

 TIME INCREMENT COMPLETED  1.235E-02,  FRACTION OF STEP COMPLETED  0.926    
 STEP TIME COMPLETED       0.926    ,  TOTAL TIME COMPLETED        0.926    


  INCREMENT    76 STARTS. ATTEMPT NUMBER  1, TIME INCREMENT  1.235E-02

  NUMBER OF EQUATIONS =      3111     NUMBER OF RHS =    1
  NUMBER OF FLOATING PT. OPERATIONS =  7.18E+06

     CHECK POINT   START OF SOLVER    

     CHECK POINT  END OF SOLVER       

       ELAPSED USER TIME (SEC)      =   0.0000    
       ELAPSED SYSTEM TIME (SEC)    =   0.0000    
       ELAPSED TOTAL CPU TIME (SEC) =   0.0000    
       ELAPSED WALLCLOCK TIME (SEC) =          0

               CONVERGENCE CHECKS FOR EQUILIBRIUM ITERATION     1


 AVERAGE FORCE                      7.232E-02   TIME AVG. FORCE       3.734E-02
 LARGEST RESIDUAL FORCE            -5.407E-10   AT NODE          7   DOF  2
   INSTANCE: PART-1-1                                                                        
 LARGEST INCREMENT OF DISP.         5.051E-02   AT NODE        517   DOF  2
   INSTANCE: PART-1-1                                                                        
 LARGEST CORRECTION TO DISP.       -1.452E-06   AT NODE         65   DOF  1
   INSTANCE: PART-1-1                                                                        
          THE FORCE     EQUILIBRIUM EQUATIONS HAVE CONVERGED

 AVERAGE MOMENT                     1.008E-04   TIME AVG. MOMENT      4.751E-05
 LARGEST RESIDUAL MOMENT           -1.429E-13   AT NODE        498   DOF  6
   INSTANCE: PART-1-1                                                                        
 LARGEST INCREMENT OF ROTATION     -2.387E-04   AT NODE        520   DOF  6
   INSTANCE: PART-1-1                                                                        
 LARGEST CORRECTION TO ROTATION     2.708E-07   AT NODE          9   DOF  6
   INSTANCE: PART-1-1                                                                        
          THE MOMENT    EQUILIBRIUM RESPONSE WAS LINEAR IN THIS INCREMENT
          TIME INCREMENT REDUCED TO   1.235E-02 TO MEET NEXT OUTPUT TIME POINT

 ITERATION SUMMARY FOR THE INCREMENT:   1 TOTAL ITERATIONS, OF WHICH
   0 ARE SEVERE DISCONTINUITY ITERATIONS AND  1 ARE EQUILIBRIUM ITERATIONS.

 TIME INCREMENT COMPLETED  1.235E-02,  FRACTION OF STEP COMPLETED  0.938    
 STEP TIME COMPLETED       0.938    ,  TOTAL TIME COMPLETED        0.938    


  INCREMENT    77 STARTS. ATTEMPT NUMBER  1, TIME INCREMENT  1.235E-02

  NUMBER OF EQUATIONS =      3111     NUMBER OF RHS =    1
  NUMBER OF FLOATING PT. OPERATIONS =  7.18E+06

     CHECK POINT   START OF SOLVER    

     CHECK POINT  END OF SOLVER       

       ELAPSED USER TIME (SEC)      =  1.00000E-02
       ELAPSED SYSTEM TIME (SEC)    =   0.0000    
       ELAPSED TOTAL CPU TIME (SEC) =  1.00000E-02
       ELAPSED WALLCLOCK TIME (SEC) =          0

               CONVERGENCE CHECKS FOR EQUILIBRIUM ITERATION     1


 AVERAGE FORCE                      7.321E-02   TIME AVG. FORCE       3.780E-02
 LARGEST RESIDUAL FORCE            -5.414E-10   AT NODE          7   DOF  2
   INSTANCE: PART-1-1                                                                        
 LARGEST INCREMENT OF DISP.         5.050E-02   AT NODE        517   DOF  2
   INSTANCE: PART-1-1                                                                        
 LARGEST CORRECTION TO DISP.       -1.429E-06   AT NODE         65   DOF  1
   INSTANCE: PART-1-1                                                                        
          THE FORCE     EQUILIBRIUM EQUATIONS HAVE CONVERGED

 AVERAGE MOMENT                     1.027E-04   TIME AVG. MOMENT      4.823E-05
 LARGEST RESIDUAL MOMENT           -1.331E-13   AT NODE        498   DOF  6
   INSTANCE: PART-1-1                                                                        
 LARGEST INCREMENT OF ROTATION     -2.384E-04   AT NODE        520   DOF  6
   INSTANCE: PART-1-1                                                                        
 LARGEST CORRECTION TO ROTATION     2.693E-07   AT NODE        512   DOF  6
   INSTANCE: PART-1-1                                                                        
          THE MOMENT    EQUILIBRIUM RESPONSE WAS LINEAR IN THIS INCREMENT
          TIME INCREMENT REDUCED TO   1.235E-02 TO MEET NEXT OUTPUT TIME POINT

 ITERATION SUMMARY FOR THE INCREMENT:   1 TOTAL ITERATIONS, OF WHICH
   0 ARE SEVERE DISCONTINUITY ITERATIONS AND  1 ARE EQUILIBRIUM ITERATIONS.

 TIME INCREMENT COMPLETED  1.235E-02,  FRACTION OF STEP COMPLETED  0.951    
 STEP TIME COMPLETED       0.951    ,  TOTAL TIME COMPLETED        0.951    


  INCREMENT    78 STARTS. ATTEMPT NUMBER  1, TIME INCREMENT  1.235E-02

  NUMBER OF EQUATIONS =      3111     NUMBER OF RHS =    1
  NUMBER OF FLOATING PT. OPERATIONS =  7.18E+06

     CHECK POINT   START OF SOLVER    

     CHECK POINT  END OF SOLVER       

       ELAPSED USER TIME (SEC)      =  1.00000E-02
       ELAPSED SYSTEM TIME (SEC)    =   0.0000    
       ELAPSED TOTAL CPU TIME (SEC) =  1.00000E-02
       ELAPSED WALLCLOCK TIME (SEC) =          0

               CONVERGENCE CHECKS FOR EQUILIBRIUM ITERATION     1


 AVERAGE FORCE                      7.411E-02   TIME AVG. FORCE       3.827E-02
 LARGEST RESIDUAL FORCE            -5.423E-10   AT NODE          7   DOF  2
   INSTANCE: PART-1-1                                                                        
 LARGEST INCREMENT OF DISP.         5.051E-02   AT NODE        517   DOF  2
   INSTANCE: PART-1-1                                                                        
 LARGEST CORRECTION TO DISP.       -1.408E-06   AT NODE         65   DOF  1
   INSTANCE: PART-1-1                                                                        
          THE FORCE     EQUILIBRIUM EQUATIONS HAVE CONVERGED

 AVERAGE MOMENT                     1.041E-04   TIME AVG. MOMENT      4.895E-05
 LARGEST RESIDUAL MOMENT           -1.310E-13   AT NODE        498   DOF  6
   INSTANCE: PART-1-1                                                                        
 LARGEST INCREMENT OF ROTATION     -2.382E-04   AT NODE        520   DOF  6
   INSTANCE: PART-1-1                                                                        
 LARGEST CORRECTION TO ROTATION     2.678E-07   AT NODE          9   DOF  6
   INSTANCE: PART-1-1                                                                        
          THE MOMENT    EQUILIBRIUM RESPONSE WAS LINEAR IN THIS INCREMENT
          TIME INCREMENT REDUCED TO   1.235E-02 TO MEET NEXT OUTPUT TIME POINT

 ITERATION SUMMARY FOR THE INCREMENT:   1 TOTAL ITERATIONS, OF WHICH
   0 ARE SEVERE DISCONTINUITY ITERATIONS AND  1 ARE EQUILIBRIUM ITERATIONS.

 TIME INCREMENT COMPLETED  1.235E-02,  FRACTION OF STEP COMPLETED  0.963    
 STEP TIME COMPLETED       0.963    ,  TOTAL TIME COMPLETED        0.963    


  INCREMENT    79 STARTS. ATTEMPT NUMBER  1, TIME INCREMENT  1.235E-02

  NUMBER OF EQUATIONS =      3111     NUMBER OF RHS =    1
  NUMBER OF FLOATING PT. OPERATIONS =  7.18E+06

     CHECK POINT   START OF SOLVER    

     CHECK POINT  END OF SOLVER       

       ELAPSED USER TIME (SEC)      =  1.00000E-02
       ELAPSED SYSTEM TIME (SEC)    =   0.0000    
       ELAPSED TOTAL CPU TIME (SEC) =  1.00000E-02
       ELAPSED WALLCLOCK TIME (SEC) =          0

               CONVERGENCE CHECKS FOR EQUILIBRIUM ITERATION     1


 AVERAGE FORCE                      7.495E-02   TIME AVG. FORCE       3.873E-02
 LARGEST RESIDUAL FORCE             5.433E-10   AT NODE        514   DOF  2
   INSTANCE: PART-1-1                                                                        
 LARGEST INCREMENT OF DISP.         5.051E-02   AT NODE        517   DOF  2
   INSTANCE: PART-1-1                                                                        
 LARGEST CORRECTION TO DISP.       -1.387E-06   AT NODE         65   DOF  1
   INSTANCE: PART-1-1                                                                        
          THE FORCE     EQUILIBRIUM EQUATIONS HAVE CONVERGED

 AVERAGE MOMENT                     1.062E-04   TIME AVG. MOMENT      4.967E-05
 LARGEST RESIDUAL MOMENT           -1.303E-13   AT NODE        499   DOF  6
   INSTANCE: PART-1-1                                                                        
 LARGEST INCREMENT OF ROTATION     -2.379E-04   AT NODE        520   DOF  6
   INSTANCE: PART-1-1                                                                        
 LARGEST CORRECTION TO ROTATION     2.664E-07   AT NODE          9   DOF  6
   INSTANCE: PART-1-1                                                                        
          THE MOMENT    EQUILIBRIUM RESPONSE WAS LINEAR IN THIS INCREMENT
          TIME INCREMENT REDUCED TO   1.235E-02 TO MEET NEXT OUTPUT TIME POINT

 ITERATION SUMMARY FOR THE INCREMENT:   1 TOTAL ITERATIONS, OF WHICH
   0 ARE SEVERE DISCONTINUITY ITERATIONS AND  1 ARE EQUILIBRIUM ITERATIONS.

 TIME INCREMENT COMPLETED  1.235E-02,  FRACTION OF STEP COMPLETED  0.975    
 STEP TIME COMPLETED       0.975    ,  TOTAL TIME COMPLETED        0.975    


  INCREMENT    80 STARTS. ATTEMPT NUMBER  1, TIME INCREMENT  1.235E-02

  NUMBER OF EQUATIONS =      3111     NUMBER OF RHS =    1
  NUMBER OF FLOATING PT. OPERATIONS =  7.18E+06

     CHECK POINT   START OF SOLVER    

     CHECK POINT  END OF SOLVER       

       ELAPSED USER TIME (SEC)      =   0.0000    
       ELAPSED SYSTEM TIME (SEC)    =   0.0000    
       ELAPSED TOTAL CPU TIME (SEC) =   0.0000    
       ELAPSED WALLCLOCK TIME (SEC) =          0

               CONVERGENCE CHECKS FOR EQUILIBRIUM ITERATION     1


 AVERAGE FORCE                      7.577E-02   TIME AVG. FORCE       3.919E-02
 LARGEST RESIDUAL FORCE             5.449E-10   AT NODE        514   DOF  2
   INSTANCE: PART-1-1                                                                        
 LARGEST INCREMENT OF DISP.         5.050E-02   AT NODE        517   DOF  2
   INSTANCE: PART-1-1                                                                        
 LARGEST CORRECTION TO DISP.       -1.367E-06   AT NODE         65   DOF  1
   INSTANCE: PART-1-1                                                                        
          THE FORCE     EQUILIBRIUM EQUATIONS HAVE CONVERGED

 AVERAGE MOMENT                     1.082E-04   TIME AVG. MOMENT      5.040E-05
 LARGEST RESIDUAL MOMENT           -1.295E-13   AT NODE        502   DOF  6
   INSTANCE: PART-1-1                                                                        
 LARGEST INCREMENT OF ROTATION     -2.377E-04   AT NODE        520   DOF  6
   INSTANCE: PART-1-1                                                                        
 LARGEST CORRECTION TO ROTATION     2.649E-07   AT NODE          9   DOF  6
   INSTANCE: PART-1-1                                                                        
          THE MOMENT    EQUILIBRIUM RESPONSE WAS LINEAR IN THIS INCREMENT

 ITERATION SUMMARY FOR THE INCREMENT:   1 TOTAL ITERATIONS, OF WHICH
   0 ARE SEVERE DISCONTINUITY ITERATIONS AND  1 ARE EQUILIBRIUM ITERATIONS.

 TIME INCREMENT COMPLETED  1.235E-02,  FRACTION OF STEP COMPLETED  0.988    
 STEP TIME COMPLETED       0.988    ,  TOTAL TIME COMPLETED        0.988    


  INCREMENT    81 STARTS. ATTEMPT NUMBER  1, TIME INCREMENT  1.235E-02

  NUMBER OF EQUATIONS =      3111     NUMBER OF RHS =    1
  NUMBER OF FLOATING PT. OPERATIONS =  7.18E+06

     CHECK POINT   START OF SOLVER    

     CHECK POINT  END OF SOLVER       

       ELAPSED USER TIME (SEC)      =  1.00000E-02
       ELAPSED SYSTEM TIME (SEC)    =   0.0000    
       ELAPSED TOTAL CPU TIME (SEC) =  1.00000E-02
       ELAPSED WALLCLOCK TIME (SEC) =          0

               CONVERGENCE CHECKS FOR EQUILIBRIUM ITERATION     1


 AVERAGE FORCE                      7.671E-02   TIME AVG. FORCE       3.966E-02
 LARGEST RESIDUAL FORCE             5.452E-10   AT NODE        514   DOF  2
   INSTANCE: PART-1-1                                                                        
 LARGEST INCREMENT OF DISP.         5.051E-02   AT NODE        517   DOF  2
   INSTANCE: PART-1-1                                                                        
 LARGEST CORRECTION TO DISP.       -1.348E-06   AT NODE         61   DOF  1
   INSTANCE: PART-1-1                                                                        
          THE FORCE     EQUILIBRIUM EQUATIONS HAVE CONVERGED

 AVERAGE MOMENT                     1.098E-04   TIME AVG. MOMENT      5.114E-05
 LARGEST RESIDUAL MOMENT           -1.232E-13   AT NODE         19   DOF  6
   INSTANCE: PART-1-1                                                                        
 LARGEST INCREMENT OF ROTATION     -2.375E-04   AT NODE        520   DOF  6
   INSTANCE: PART-1-1                                                                        
 LARGEST CORRECTION TO ROTATION     2.635E-07   AT NODE          9   DOF  6
   INSTANCE: PART-1-1                                                                        
          THE MOMENT    EQUILIBRIUM RESPONSE WAS LINEAR IN THIS INCREMENT

 ITERATION SUMMARY FOR THE INCREMENT:   1 TOTAL ITERATIONS, OF WHICH
   0 ARE SEVERE DISCONTINUITY ITERATIONS AND  1 ARE EQUILIBRIUM ITERATIONS.

 TIME INCREMENT COMPLETED  1.235E-02,  FRACTION OF STEP COMPLETED   1.00    
 STEP TIME COMPLETED        1.00    ,  TOTAL TIME COMPLETED         1.00    


          THE ANALYSIS HAS BEEN COMPLETED



     ANALYSIS SUMMARY:
     TOTAL OF         81  INCREMENTS
                       0  CUTBACKS IN AUTOMATIC INCREMENTATION
                      82  ITERATIONS INCLUDING CONTACT ITERATIONS IF PRESENT
                      82  PASSES THROUGH THE EQUATION SOLVER OF WHICH 
                      82  INVOLVE MATRIX DECOMPOSITION, INCLUDING
                       0  DECOMPOSITION(S) OF THE MASS MATRIX
                       1  REORDERING OF EQUATIONS TO MINIMIZE WAVEFRONT
                       0  ADDITIONAL RESIDUAL EVALUATIONS FOR LINE SEARCHES
                       0  ADDITIONAL OPERATOR EVALUATIONS FOR LINE SEARCHES
                       2  WARNING MESSAGES DURING USER INPUT PROCESSING
                       0  WARNING MESSAGES DURING ANALYSIS
                       0  ANALYSIS WARNINGS ARE NUMERICAL PROBLEM MESSAGES
                       0  ANALYSIS WARNINGS ARE NEGATIVE EIGENVALUE MESSAGES
                       0  ERROR MESSAGES



     JOB TIME SUMMARY
       USER TIME (SEC)      =   7.3300    
       SYSTEM TIME (SEC)    =  0.32000    
       TOTAL CPU TIME (SEC) =   7.6500    
       WALLCLOCK TIME (SEC) =         10
