 Abaqus/Standard 2021                  DATE 14-Feb-2023 TIME 14:22:27
 SUMMARY OF JOB INFORMATION:
 STEP  INC ATT SEVERE EQUIL TOTAL  TOTAL      STEP       INC OF       DOF    IF
               DISCON ITERS ITERS  TIME/    TIME/LPF    TIME/LPF    MONITOR RIKS
               ITERS               FREQ
   1     1   1     0     2     2  0.0123     0.0123     0.01235   
   1     2   1     0     1     1  0.0247     0.0247     0.01235   
   1     3   1     0     1     1  0.0370     0.0370     0.01235   
   1     4   1     0     1     1  0.0494     0.0494     0.01235   
   1     5   1     0     1     1  0.0617     0.0617     0.01235   
   1     6   1     0     1     1  0.0741     0.0741     0.01235   
   1     7   1     0     1     1  0.0864     0.0864     0.01235   
   1     8   1     0     1     1  0.0988     0.0988     0.01235   
   1     9   1     0     1     1  0.111      0.111      0.01235   
   1    10   1     0     1     1  0.123      0.123      0.01235   
   1    11   1     0     1     1  0.136      0.136      0.01235   
   1    12   1     0     1     1  0.148      0.148      0.01235   
   1    13   1     0     1     1  0.160      0.160      0.01235   
   1    14   1     0     1     1  0.173      0.173      0.01235   
   1    15   1     0     1     1  0.185      0.185      0.01234   
   1    16   1     0     1     1  0.198      0.198      0.01235   
   1    17   1     0     1     1  0.210      0.210      0.01235   
   1    18   1     0     1     1  0.222      0.222      0.01234   
   1    19   1     0     1     1  0.235      0.235      0.01235   
   1    20   1     0     1     1  0.247      0.247      0.01235   
   1    21   1     0     1     1  0.259      0.259      0.01235   
   1    22   1     0     1     1  0.272      0.272      0.01235   
   1    23   1     0     1     1  0.284      0.284      0.01235   
   1    24   1     0     1     1  0.296      0.296      0.01234   
   1    25   1     0     1     1  0.309      0.309      0.01235   
   1    26   1     0     1     1  0.321      0.321      0.01235   
   1    27   1     0     1     1  0.333      0.333      0.01234   
   1    28   1     0     1     1  0.346      0.346      0.01235   
   1    29   1     0     1     1  0.358      0.358      0.01235   
   1    30   1     0     1     1  0.370      0.370      0.01234   
   1    31   1     0     1     1  0.383      0.383      0.01235   
   1    32   1     0     1     1  0.395      0.395      0.01235   
   1    33   1     0     1     1  0.407      0.407      0.01234   
   1    34   1     0     1     1  0.420      0.420      0.01235   
   1    35   1     0     1     1  0.432      0.432      0.01235   
   1    36   1     0     1     1  0.444      0.444      0.01234   
   1    37   1     0     1     1  0.457      0.457      0.01235   
   1    38   1     0     1     1  0.469      0.469      0.01235   
   1    39   1     0     1     1  0.481      0.481      0.01234   
   1    40   1     0     1     1  0.494      0.494      0.01235   
   1    41   1     0     1     1  0.506      0.506      0.01235   
   1    42   1     0     1     1  0.519      0.519      0.01235   
   1    43   1     0     1     1  0.531      0.531      0.01235   
   1    44   1     0     1     1  0.543      0.543      0.01235   
   1    45   1     0     1     1  0.556      0.556      0.01235   
   1    46   1     0     1     1  0.568      0.568      0.01234   
   1    47   1     0     1     1  0.580      0.580      0.01235   
   1    48   1     0     1     1  0.593      0.593      0.01235   
   1    49   1     0     1     1  0.605      0.605      0.01234   
   1    50   1     0     1     1  0.617      0.617      0.01235   
   1    51   1     0     1     1  0.630      0.630      0.01235   
   1    52   1     0     1     1  0.642      0.642      0.01234   
   1    53   1     0     1     1  0.654      0.654      0.01235   
   1    54   1     0     1     1  0.667      0.667      0.01235   
   1    55   1     0     1     1  0.679      0.679      0.01234   
   1    56   1     0     1     1  0.691      0.691      0.01235   
   1    57   1     0     1     1  0.704      0.704      0.01235   
   1    58   1     0     1     1  0.716      0.716      0.01235   
   1    59   1     0     1     1  0.728      0.728      0.01235   
   1    60   1     0     1     1  0.741      0.741      0.01235   
   1    61   1     0     1     1  0.753      0.753      0.01235   
   1    62   1     0     1     1  0.765      0.765      0.01235   
   1    63   1     0     1     1  0.778      0.778      0.01235   
   1    64   1     0     1     1  0.790      0.790      0.01235   
   1    65   1     0     1     1  0.802      0.802      0.01235   
   1    66   1     0     1     1  0.815      0.815      0.01235   
   1    67   1     0     1     1  0.827      0.827      0.01235   
   1    68   1     0     1     1  0.840      0.840      0.01235   
   1    69   1     0     1     1  0.852      0.852      0.01235   
   1    70   1     0     1     1  0.864      0.864      0.01235   
   1    71   1     0     1     1  0.877      0.877      0.01234   
   1    72   1     0     1     1  0.889      0.889      0.01235   
   1    73   1     0     1     1  0.901      0.901      0.01235   
   1    74   1     0     1     1  0.914      0.914      0.01234   
   1    75   1     0     1     1  0.926      0.926      0.01235   
   1    76   1     0     1     1  0.938      0.938      0.01235   
   1    77   1     0     1     1  0.951      0.951      0.01235   
   1    78   1     0     1     1  0.963      0.963      0.01235   
   1    79   1     0     1     1  0.975      0.975      0.01235   
   1    80   1     0     1     1  0.988      0.988      0.01235   
   1    81   1     0     1     1  1.00       1.00       0.01235   
                          
 THE ANALYSIS HAS COMPLETED SUCCESSFULLY
