 Abaqus/Standard 2021                  DATE 14-Feb-2023 TIME 14:23:00
 SUMMARY OF JOB INFORMATION:
 STEP  INC ATT SEVERE EQUIL TOTAL  TOTAL      STEP       INC OF       DOF    IF
               DISCON ITERS ITERS  TIME/    TIME/LPF    TIME/LPF    MONITOR RIKS
               ITERS               FREQ
   1     1   1     0     2     2  0.0125     0.0125     0.01250   
   1     2   1     0     1     1  0.0250     0.0250     0.01250   
   1     3   1     0     1     1  0.0375     0.0375     0.01250   
   1     4   1     0     1     1  0.0500     0.0500     0.01250   
   1     5   1     0     1     1  0.0625     0.0625     0.01250   
   1     6   1     0     1     1  0.0750     0.0750     0.01250   
   1     7   1     0     1     1  0.0875     0.0875     0.01250   
   1     8   1     0     1     1  0.100      0.100      0.01250   
   1     9   1     0     1     1  0.113      0.113      0.01250   
   1    10   1     0     1     1  0.125      0.125      0.01250   
   1    11   1     0     1     1  0.138      0.138      0.01250   
   1    12   1     0     1     1  0.150      0.150      0.01250   
   1    13   1     0     1     1  0.163      0.163      0.01250   
   1    14   1     0     1     1  0.175      0.175      0.01250   
   1    15   1     0     1     1  0.188      0.188      0.01250   
   1    16   1     0     1     1  0.200      0.200      0.01250   
   1    17   1     0     1     1  0.212      0.212      0.01250   
   1    18   1     0     1     1  0.225      0.225      0.01250   
   1    19   1     0     1     1  0.237      0.237      0.01250   
   1    20   1     0     1     1  0.250      0.250      0.01250   
   1    21   1     0     1     1  0.263      0.263      0.01250   
   1    22   1     0     1     1  0.275      0.275      0.01250   
   1    23   1     0     1     1  0.287      0.287      0.01250   
   1    24   1     0     1     1  0.300      0.300      0.01250   
   1    25   1     0     1     1  0.312      0.312      0.01250   
   1    26   1     0     1     1  0.325      0.325      0.01250   
   1    27   1     0     1     1  0.338      0.338      0.01250   
   1    28   1     0     1     1  0.350      0.350      0.01250   
   1    29   1     0     1     1  0.362      0.362      0.01250   
   1    30   1     0     1     1  0.375      0.375      0.01250   
   1    31   1     0     1     1  0.388      0.388      0.01250   
   1    32   1     0     1     1  0.400      0.400      0.01250   
   1    33   1     0     1     1  0.412      0.412      0.01250   
   1    34   1     0     1     1  0.425      0.425      0.01250   
   1    35   1     0     1     1  0.438      0.438      0.01250   
   1    36   1     0     1     1  0.450      0.450      0.01250   
   1    37   1     0     1     1  0.463      0.463      0.01250   
   1    38   1     0     1     1  0.475      0.475      0.01250   
   1    39   1     0     1     1  0.487      0.487      0.01250   
   1    40   1     0     1     1  0.500      0.500      0.01250   
   1    41   1     0     1     1  0.512      0.512      0.01250   
   1    42   1     0     1     1  0.525      0.525      0.01250   
   1    43   1     0     1     1  0.537      0.537      0.01250   
   1    44   1     0     1     1  0.550      0.550      0.01250   
   1    45   1     0     1     1  0.562      0.562      0.01250   
   1    46   1     0     1     1  0.575      0.575      0.01250   
   1    47   1     0     1     1  0.588      0.588      0.01250   
   1    48   1     0     1     1  0.600      0.600      0.01250   
   1    49   1     0     1     1  0.613      0.613      0.01250   
   1    50   1     0     1     1  0.625      0.625      0.01250   
   1    51   1     0     1     1  0.637      0.637      0.01250   
   1    52   1     0     1     1  0.650      0.650      0.01250   
   1    53   1     0     1     1  0.662      0.662      0.01250   
   1    54   1     0     1     1  0.675      0.675      0.01250   
   1    55   1     0     1     1  0.688      0.688      0.01250   
   1    56   1     0     1     1  0.700      0.700      0.01250   
   1    57   1     0     1     1  0.713      0.713      0.01250   
   1    58   1     0     1     1  0.725      0.725      0.01250   
   1    59   1     0     1     1  0.738      0.738      0.01250   
   1    60   1     0     1     1  0.750      0.750      0.01250   
   1    61   1     0     1     1  0.762      0.762      0.01250   
   1    62   1     0     1     1  0.775      0.775      0.01250   
   1    63   1     0     1     1  0.787      0.787      0.01250   
   1    64   1     0     1     1  0.800      0.800      0.01250   
   1    65   1     0     1     1  0.812      0.812      0.01250   
   1    66   1     0     1     1  0.825      0.825      0.01250   
   1    67   1     0     1     1  0.838      0.838      0.01250   
   1    68   1     0     1     1  0.850      0.850      0.01250   
   1    69   1     0     1     1  0.863      0.863      0.01250   
   1    70   1     0     1     1  0.875      0.875      0.01250   
   1    71   1     0     1     1  0.887      0.887      0.01250   
   1    72   1     0     1     1  0.900      0.900      0.01250   
   1    73   1     0     1     1  0.912      0.912      0.01250   
   1    74   1     0     1     1  0.925      0.925      0.01250   
   1    75   1     0     1     1  0.938      0.938      0.01250   
   1    76   1     0     1     1  0.950      0.950      0.01250   
   1    77   1     0     1     1  0.963      0.963      0.01250   
   1    78   1     0     1     1  0.975      0.975      0.01250   
   1    79   1     0     1     1  0.988      0.988      0.01250   
   1    80   1     0     1     1  1.00       1.00       0.01250   
                          
 THE ANALYSIS HAS COMPLETED SUCCESSFULLY
