 Abaqus/Standard 2021                  DATE 14-Feb-2023 TIME 14:21:56
 SUMMARY OF JOB INFORMATION:
 STEP  INC ATT SEVERE EQUIL TOTAL  TOTAL      STEP       INC OF       DOF    IF
               DISCON ITERS ITERS  TIME/    TIME/LPF    TIME/LPF    MONITOR RIKS
               ITERS               FREQ
   1     1   1     0     2     2  0.0127     0.0127     0.01266   
   1     2   1     0     1     1  0.0253     0.0253     0.01266   
   1     3   1     0     1     1  0.0380     0.0380     0.01266   
   1     4   1     0     1     1  0.0506     0.0506     0.01266   
   1     5   1     0     1     1  0.0633     0.0633     0.01266   
   1     6   1     0     1     1  0.0759     0.0759     0.01266   
   1     7   1     0     1     1  0.0886     0.0886     0.01266   
   1     8   1     0     1     1  0.101      0.101      0.01266   
   1     9   1     0     1     1  0.114      0.114      0.01266   
   1    10   1     0     1     1  0.127      0.127      0.01266   
   1    11   1     0     1     1  0.139      0.139      0.01266   
   1    12   1     0     1     1  0.152      0.152      0.01266   
   1    13   1     0     1     1  0.165      0.165      0.01266   
   1    14   1     0     1     1  0.177      0.177      0.01266   
   1    15   1     0     1     1  0.190      0.190      0.01266   
   1    16   1     0     1     1  0.203      0.203      0.01266   
   1    17   1     0     1     1  0.215      0.215      0.01266   
   1    18   1     0     1     1  0.228      0.228      0.01266   
   1    19   1     0     1     1  0.241      0.241      0.01266   
   1    20   1     0     1     1  0.253      0.253      0.01266   
   1    21   1     0     1     1  0.266      0.266      0.01266   
   1    22   1     0     1     1  0.278      0.278      0.01266   
   1    23   1     0     1     1  0.291      0.291      0.01266   
   1    24   1     0     1     1  0.304      0.304      0.01266   
   1    25   1     0     1     1  0.316      0.316      0.01266   
   1    26   1     0     1     1  0.329      0.329      0.01266   
   1    27   1     0     1     1  0.342      0.342      0.01266   
   1    28   1     0     1     1  0.354      0.354      0.01266   
   1    29   1     0     1     1  0.367      0.367      0.01266   
   1    30   1     0     1     1  0.380      0.380      0.01266   
   1    31   1     0     1     1  0.392      0.392      0.01266   
   1    32   1     0     1     1  0.405      0.405      0.01266   
   1    33   1     0     1     1  0.418      0.418      0.01266   
   1    34   1     0     1     1  0.430      0.430      0.01266   
   1    35   1     0     1     1  0.443      0.443      0.01266   
   1    36   1     0     1     1  0.456      0.456      0.01266   
   1    37   1     0     1     1  0.468      0.468      0.01266   
   1    38   1     0     1     1  0.481      0.481      0.01266   
   1    39   1     0     1     1  0.494      0.494      0.01266   
   1    40   1     0     1     1  0.506      0.506      0.01266   
   1    41   1     0     1     1  0.519      0.519      0.01266   
   1    42   1     0     1     1  0.532      0.532      0.01266   
   1    43   1     0     1     1  0.544      0.544      0.01266   
   1    44   1     0     1     1  0.557      0.557      0.01266   
   1    45   1     0     1     1  0.570      0.570      0.01266   
   1    46   1     0     1     1  0.582      0.582      0.01266   
   1    47   1     0     1     1  0.595      0.595      0.01266   
   1    48   1     0     1     1  0.608      0.608      0.01266   
   1    49   1     0     1     1  0.620      0.620      0.01266   
   1    50   1     0     1     1  0.633      0.633      0.01266   
   1    51   1     0     1     1  0.646      0.646      0.01266   
   1    52   1     0     1     1  0.658      0.658      0.01266   
   1    53   1     0     1     1  0.671      0.671      0.01266   
   1    54   1     0     1     1  0.684      0.684      0.01266   
   1    55   1     0     1     1  0.696      0.696      0.01266   
   1    56   1     0     1     1  0.709      0.709      0.01266   
   1    57   1     0     1     1  0.722      0.722      0.01266   
   1    58   1     0     1     1  0.734      0.734      0.01266   
   1    59   1     0     1     1  0.747      0.747      0.01266   
   1    60   1     0     1     1  0.759      0.759      0.01266   
   1    61   1     0     1     1  0.772      0.772      0.01266   
   1    62   1     0     1     1  0.785      0.785      0.01266   
   1    63   1     0     1     1  0.797      0.797      0.01266   
   1    64   1     0     1     1  0.810      0.810      0.01266   
   1    65   1     0     1     1  0.823      0.823      0.01266   
   1    66   1     0     1     1  0.835      0.835      0.01266   
   1    67   1     0     1     1  0.848      0.848      0.01266   
   1    68   1     0     1     1  0.861      0.861      0.01266   
   1    69   1     0     1     1  0.873      0.873      0.01266   
   1    70   1     0     1     1  0.886      0.886      0.01266   
   1    71   1     0     1     1  0.899      0.899      0.01266   
   1    72   1     0     1     1  0.911      0.911      0.01266   
   1    73   1     0     1     1  0.924      0.924      0.01266   
   1    74   1     0     1     1  0.937      0.937      0.01266   
   1    75   1     0     1     1  0.949      0.949      0.01266   
   1    76   1     0     1     1  0.962      0.962      0.01266   
   1    77   1     0     1     1  0.975      0.975      0.01266   
   1    78   1     0     1     1  0.987      0.987      0.01266   
   1    79   1     0     1     1  1.00       1.00       0.01266   
                          
 THE ANALYSIS HAS COMPLETED SUCCESSFULLY
