 Abaqus/Standard 2021                  DATE 14-Feb-2023 TIME 14:22:44
 SUMMARY OF JOB INFORMATION:
 STEP  INC ATT SEVERE EQUIL TOTAL  TOTAL      STEP       INC OF       DOF    IF
               DISCON ITERS ITERS  TIME/    TIME/LPF    TIME/LPF    MONITOR RIKS
               ITERS               FREQ
   1     1   1     0     2     2  0.0122     0.0122     0.01220   
   1     2   1     0     1     1  0.0244     0.0244     0.01220   
   1     3   1     0     1     1  0.0366     0.0366     0.01220   
   1     4   1     0     1     1  0.0488     0.0488     0.01220   
   1     5   1     0     1     1  0.0610     0.0610     0.01220   
   1     6   1     0     1     1  0.0732     0.0732     0.01220   
   1     7   1     0     1     1  0.0854     0.0854     0.01220   
   1     8   1     0     1     1  0.0976     0.0976     0.01220   
   1     9   1     0     1     1  0.110      0.110      0.01220   
   1    10   1     0     1     1  0.122      0.122      0.01219   
   1    11   1     0     1     1  0.134      0.134      0.01219   
   1    12   1     0     1     1  0.146      0.146      0.01220   
   1    13   1     0     1     1  0.159      0.159      0.01220   
   1    14   1     0     1     1  0.171      0.171      0.01219   
   1    15   1     0     1     1  0.183      0.183      0.01220   
   1    16   1     0     1     1  0.195      0.195      0.01219   
   1    17   1     0     1     1  0.207      0.207      0.01220   
   1    18   1     0     1     1  0.220      0.220      0.01220   
   1    19   1     0     1     1  0.232      0.232      0.01219   
   1    20   1     0     1     1  0.244      0.244      0.01220   
   1    21   1     0     1     1  0.256      0.256      0.01220   
   1    22   1     0     1     1  0.268      0.268      0.01220   
   1    23   1     0     1     1  0.280      0.280      0.01220   
   1    24   1     0     1     1  0.293      0.293      0.01220   
   1    25   1     0     1     1  0.305      0.305      0.01219   
   1    26   1     0     1     1  0.317      0.317      0.01220   
   1    27   1     0     1     1  0.329      0.329      0.01220   
   1    28   1     0     1     1  0.341      0.341      0.01220   
   1    29   1     0     1     1  0.354      0.354      0.01220   
   1    30   1     0     1     1  0.366      0.366      0.01220   
   1    31   1     0     1     1  0.378      0.378      0.01220   
   1    32   1     0     1     1  0.390      0.390      0.01219   
   1    33   1     0     1     1  0.402      0.402      0.01220   
   1    34   1     0     1     1  0.415      0.415      0.01220   
   1    35   1     0     1     1  0.427      0.427      0.01220   
   1    36   1     0     1     1  0.439      0.439      0.01220   
   1    37   1     0     1     1  0.451      0.451      0.01220   
   1    38   1     0     1     1  0.463      0.463      0.01220   
   1    39   1     0     1     1  0.476      0.476      0.01219   
   1    40   1     0     1     1  0.488      0.488      0.01220   
   1    41   1     0     1     1  0.500      0.500      0.01220   
   1    42   1     0     1     1  0.512      0.512      0.01219   
   1    43   1     0     1     1  0.524      0.524      0.01220   
   1    44   1     0     1     1  0.537      0.537      0.01219   
   1    45   1     0     1     1  0.549      0.549      0.01220   
   1    46   1     0     1     1  0.561      0.561      0.01220   
   1    47   1     0     1     1  0.573      0.573      0.01219   
   1    48   1     0     1     1  0.585      0.585      0.01220   
   1    49   1     0     1     1  0.598      0.598      0.01219   
   1    50   1     0     1     1  0.610      0.610      0.01219   
   1    51   1     0     1     1  0.622      0.622      0.01220   
   1    52   1     0     1     1  0.634      0.634      0.01219   
   1    53   1     0     1     1  0.646      0.646      0.01220   
   1    54   1     0     1     1  0.659      0.659      0.01220   
   1    55   1     0     1     1  0.671      0.671      0.01219   
   1    56   1     0     1     1  0.683      0.683      0.01219   
   1    57   1     0     1     1  0.695      0.695      0.01220   
   1    58   1     0     1     1  0.707      0.707      0.01219   
   1    59   1     0     1     1  0.720      0.720      0.01220   
   1    60   1     0     1     1  0.732      0.732      0.01219   
   1    61   1     0     1     1  0.744      0.744      0.01219   
   1    62   1     0     1     1  0.756      0.756      0.01220   
   1    63   1     0     1     1  0.768      0.768      0.01219   
   1    64   1     0     1     1  0.780      0.780      0.01219   
   1    65   1     0     1     1  0.793      0.793      0.01220   
   1    66   1     0     1     1  0.805      0.805      0.01219   
   1    67   1     0     1     1  0.817      0.817      0.01220   
   1    68   1     0     1     1  0.829      0.829      0.01219   
   1    69   1     0     1     1  0.841      0.841      0.01219   
   1    70   1     0     1     1  0.854      0.854      0.01220   
   1    71   1     0     1     1  0.866      0.866      0.01220   
   1    72   1     0     1     1  0.878      0.878      0.01219   
   1    73   1     0     1     1  0.890      0.890      0.01220   
   1    74   1     0     1     1  0.902      0.902      0.01219   
   1    75   1     0     1     1  0.915      0.915      0.01219   
   1    76   1     0     1     1  0.927      0.927      0.01220   
   1    77   1     0     1     1  0.939      0.939      0.01219   
   1    78   1     0     1     1  0.951      0.951      0.01220   
   1    79   1     0     1     1  0.963      0.963      0.01220   
   1    80   1     0     1     1  0.976      0.976      0.01219   
   1    81   1     0     1     1  0.988      0.988      0.01220   
   1    82   1     0     1     1  1.00       1.00       0.01219   
                          
 THE ANALYSIS HAS COMPLETED SUCCESSFULLY
