1

   Abaqus 2021                                  Date 14-Feb-2023   Time 14:20:04
   For use by HARVARD COLLEGE PRESIDENT AND FELLOWS OF under license from Dassault Systemes or its subsidiary.

                                                                                 
                                                                                 
 STEP    1     INCREMENT     1     STEP TIME    0.00    


                        S T E P       1     D Y N A M I C   A N A L Y S I S - I M P L I C I T  I N T E G R A T I O N


                                                                                          

          DYNAMIC APPLICATION PACKED SCHEME IS                 QUASI-STATIC        
          BACKWARD EULER (BWE) TIME INTEGRATOR IS USED

     AUTOMATIC TIME CONTROL WITH -
          A SUGGESTED INITIAL TIME INCREMENT OF                0.100    
          AND A TOTAL TIME PERIOD OF                            2.00    
          THE MINIMUM TIME INCREMENT ALLOWED IS                5.000E-12
          THE MAXIMUM TIME INCREMENT ALLOWED IS                 2.00    

          THE HALF-INCREMENT RESIDUALS WILL NOT BE CALCULATED

          INITIAL ACCELERATIONS WILL NOT BE CALCULATED
          AGGRESSIVE   TIME INCREMENTATION IS USED
          STEP AMPLITUDE IS                                    RAMP

 CONVERGENCE TOLERANCE PARAMETERS FOR FORCE    
     CRITERION FOR RESIDUAL FORCE     FOR A NONLINEAR PROBLEM          5.000E-03
     CRITERION FOR DISP.    CORRECTION IN A NONLINEAR PROBLEM          1.000E-02
     INITIAL VALUE OF TIME AVERAGE FORCE                               1.000E-02
     AVERAGE FORCE     IS TIME AVERAGE FORCE    
     ALTERNATE CRIT. FOR RESIDUAL FORCE     FOR A NONLINEAR PROBLEM    2.000E-02
     CRITERION FOR ZERO FORCE     RELATIVE TO TIME AVRG. FORCE         1.000E-05
     CRITERION FOR RESIDUAL FORCE     WHEN THERE IS ZERO FLUX          1.000E-05
     CRITERION FOR DISP.    CORRECTION WHEN THERE IS ZERO FLUX         1.000E-03
     CRITERION FOR RESIDUAL FORCE     FOR A LINEAR INCREMENT           1.000E-08
     FIELD CONVERSION RATIO                                             1.00    
     CRITERION FOR ZERO FORCE     REL. TO TIME AVRG. MAX. FORCE        1.000E-05
     CRITERION FOR ZERO DISP.    RELATIVE TO CHARACTERISTIC LENGTH     1.000E-08

 CONVERGENCE TOLERANCE PARAMETERS FOR MOMENT   
     CRITERION FOR RESIDUAL MOMENT    FOR A NONLINEAR PROBLEM          5.000E-03
     CRITERION FOR ROTATION CORRECTION IN A NONLINEAR PROBLEM          1.000E-02
     INITIAL VALUE OF TIME AVERAGE MOMENT                              1.000E-02
     AVERAGE MOMENT    IS TIME AVERAGE MOMENT   
     ALTERNATE CRIT. FOR RESIDUAL MOMENT    FOR A NONLINEAR PROBLEM    2.000E-02
     CRITERION FOR ZERO MOMENT    RELATIVE TO TIME AVRG. MOMENT        1.000E-05
     CRITERION FOR RESIDUAL MOMENT    WHEN THERE IS ZERO FLUX          1.000E-05
     CRITERION FOR ROTATION CORRECTION WHEN THERE IS ZERO FLUX         1.000E-03
     CRITERION FOR RESIDUAL MOMENT    FOR A LINEAR INCREMENT           1.000E-08
     FIELD CONVERSION RATIO                                             1.00    
     CRITERION FOR ZERO MOMENT    REL. TO TIME AVRG. MAX. MOMENT       1.000E-05

     VOLUMETRIC STRAIN COMPATIBILITY TOLERANCE FOR HYBRID SOLIDS       1.000E-05
     AXIAL STRAIN COMPATIBILITY TOLERANCE FOR HYBRID BEAMS             1.000E-05
     TRANS. SHEAR STRAIN COMPATIBILITY TOLERANCE FOR HYBRID BEAMS      1.000E-05
     SOFT CONTACT CONSTRAINT COMPATIBILITY TOLERANCE FOR P>P0          5.000E-03
     SOFT CONTACT CONSTRAINT COMPATIBILITY TOLERANCE FOR P=0.0         0.100    
     CONTACT FORCE ERROR TOLERANCE FOR CONVERT SDI=YES                 1.00    
     DISPLACEMENT COMPATIBILITY TOLERANCE FOR DCOUP ELEMENTS           1.000E-05
     ROTATION COMPATIBILITY TOLERANCE FOR DCOUP ELEMENTS               1.000E-05

 EQUILIBRIUM WILL BE CHECKED FOR SEVERE DISCONTINUITY ITERATIONS

 TIME INCREMENTATION CONTROL PARAMETERS:
     FIRST EQUILIBRIUM ITERATION FOR CONSECUTIVE DIVERGENCE CHECK              4
     EQUILIBRIUM ITERATION AT WHICH LOG. CONVERGENCE RATE CHECK BEGINS         8
     EQUILIBRIUM ITERATION AFTER WHICH ALTERNATE RESIDUAL IS USED              9
     MAXIMUM EQUILIBRIUM ITERATIONS ALLOWED                                   16
     EQUILIBRIUM ITERATION COUNT FOR CUT-BACK IN NEXT INCREMENT               10
     MAXIMUM EQUILIB. ITERS IN TWO INCREMENTS FOR TIME INCREMENT INCREASE      4
     MAXIMUM ITERATIONS FOR SEVERE DISCONTINUITIES                            50
 *** MAXIMUM ATTEMPTS ALLOWED IN AN INCREMENT                                 25
     MAXIMUM DISCON. ITERS IN TWO INCREMENTS FOR TIME INCREMENT INCREASE      50
     MAXIMUM CONTACT AUGMENTATIONS FOR *SURFACE BEHAVIOR,AUGMENTED LAGRANGE   50
     CUT-BACK FACTOR AFTER DIVERGENCE                                 0.2500    
     CUT-BACK FACTOR FOR TOO SLOW CONVERGENCE                         0.5000    
     CUT-BACK FACTOR AFTER TOO MANY EQUILIBRIUM ITERATIONS            0.7500    
     CUT-BACK FACTOR AFTER TOO MANY SEVERE DISCONTINUITY ITERATIONS   0.2500    
     CUT-BACK FACTOR AFTER PROBLEMS IN ELEMENT ASSEMBLY               0.2500    
     INCREASE FACTOR AFTER TWO INCREMENTS THAT CONVERGE QUICKLY        1.500    
     MAX. TIME INCREMENT INCREASE FACTOR ALLOWED                       1.500    
     MAX. TIME INCREMENT INCREASE FACTOR ALLOWED (DYNAMICS)            1.250    
     MAX. TIME INCREMENT INCREASE FACTOR ALLOWED (DIFFUSION)           2.000    
     MINIMUM TIME INCREMENT RATIO FOR EXTRAPOLATION TO OCCUR          0.1000    
     MAX. RATIO OF TIME INCREMENT TO STABILITY LIMIT                   1.000    
     FRACTION OF STABILITY LIMIT FOR NEW TIME INCREMENT               0.9500    
     TIME INCREMENT INCREASE FACTOR BEFORE A TIME POINT                1.000    

 *** INDICATES USE OF NON-DEFAULT TIME INCREMENTATION CONTROL PARAMETER
     SELECTED WITH *CONTROLS
     GLOBAL STABILIZATION CONTROL IS NOT USED

          PRINT OF INCREMENT NUMBER, TIME, ETC., EVERY    1  INCREMENTS

     THE MAXIMUM NUMBER OF INCREMENTS IN THIS STEP IS                     500

          LARGE DISPLACEMENT THEORY WILL BE USED

     LINEAR EXTRAPOLATION WILL BE USED

     CHARACTERISTIC ELEMENT LENGTH     0.854    

     DETAILS REGARDING ACTUAL SOLUTION WAVEFRONT REQUESTED

     DETAILED OUTPUT OF DIAGNOSTICS TO DATABASE REQUESTED

     PRINT OF INCREMENT NUMBER, TIME, ETC., TO THE MESSAGE FILE EVERY     1  INCREMENTS
          THE INITIAL TIME INCREMENT WAS REDUCED TO   7.400E-02 TO MEET THE NEXT OUTPUT TIME POINT

     COLLECTING MODEL CONSTRAINT INFORMATION FOR OVERCONSTRAINT CHECKS

     COLLECTING STEP CONSTRAINT INFORMATION FOR OVERCONSTRAINT CHECKS


  INCREMENT     1 STARTS. ATTEMPT NUMBER  1, TIME INCREMENT  7.400E-02

  NUMBER OF EQUATIONS =      2415     NUMBER OF RHS =    1
  NUMBER OF FLOATING PT. OPERATIONS =  5.10E+06

     CHECK POINT   START OF SOLVER    

     CHECK POINT  END OF SOLVER       

       ELAPSED USER TIME (SEC)      =  1.00000E-02
       ELAPSED SYSTEM TIME (SEC)    =   0.0000    
       ELAPSED TOTAL CPU TIME (SEC) =  1.00000E-02
       ELAPSED WALLCLOCK TIME (SEC) =          0

               CONVERGENCE CHECKS FOR EQUILIBRIUM ITERATION     1


 AVERAGE FORCE                      1.717E-03   TIME AVG. FORCE       1.717E-03
 LARGEST RESIDUAL FORCE            -0.124       AT NODE          1   DOF  2
   INSTANCE: REFPOINT-0                                                                      
 LARGEST INCREMENT OF DISP.         -4.08       AT NODE        401   DOF  3
   INSTANCE: PART-1-1                                                                        
 LARGEST CORRECTION TO DISP.        -4.08       AT NODE        401   DOF  3
   INSTANCE: PART-1-1                                                                        
          FORCE     EQUILIBRIUM NOT ACHIEVED WITHIN TOLERANCE.

 AVERAGE MOMENT                     3.404E-04   TIME AVG. MOMENT      3.404E-04
 LARGEST RESIDUAL MOMENT            1.120E-02   AT NODE        279   DOF  4
   INSTANCE: PART-1-1                                                                        
 LARGEST INCREMENT OF ROTATION     -6.556E-02   AT NODE        280   DOF  4
   INSTANCE: PART-1-1                                                                        
 LARGEST CORRECTION TO ROTATION    -6.556E-02   AT NODE        280   DOF  4
   INSTANCE: PART-1-1                                                                        
          MOMENT    EQUILIBRIUM NOT ACHIEVED WITHIN TOLERANCE.

  NUMBER OF EQUATIONS =      2415     NUMBER OF RHS =    1
  NUMBER OF FLOATING PT. OPERATIONS =  5.10E+06

     CHECK POINT   START OF SOLVER    

     CHECK POINT  END OF SOLVER       

       ELAPSED USER TIME (SEC)      =  1.00000E-02
       ELAPSED SYSTEM TIME (SEC)    =   0.0000    
       ELAPSED TOTAL CPU TIME (SEC) =  1.00000E-02
       ELAPSED WALLCLOCK TIME (SEC) =          0
 

 ***WARNING: THE SYSTEM MATRIX HAS 3 NEGATIVE EIGENVALUES.

     NEGATIVE EIGENVALUES MEAN THAT THE SYSTEM MATRIX IS NOT 
     POSITIVE DEFINITE:
     FOR EXAMPLE, A BIFURCATION (BUCKLING) LOAD MAY HAVE BEEN EXCEEDED.

               CONVERGENCE CHECKS FOR EQUILIBRIUM ITERATION     2


 AVERAGE FORCE                      9.894E-06   TIME AVG. FORCE       9.894E-06
 LARGEST RESIDUAL FORCE             5.821E-04   AT NODE          1   DOF  3
   INSTANCE: REFPOINT-0                                                                      
 LARGEST INCREMENT OF DISP.         -4.11       AT NODE        401   DOF  3
   INSTANCE: PART-1-1                                                                        
 LARGEST CORRECTION TO DISP.       -0.124       AT NODE        401   DOF  2
   INSTANCE: PART-1-1                                                                        
          FORCE     EQUILIBRIUM NOT ACHIEVED WITHIN TOLERANCE.

 AVERAGE MOMENT                     4.798E-06   TIME AVG. MOMENT      4.798E-06
 LARGEST RESIDUAL MOMENT           -1.615E-04   AT NODE        270   DOF  4
   INSTANCE: PART-1-1                                                                        
 LARGEST INCREMENT OF ROTATION     -6.633E-02   AT NODE        277   DOF  4
   INSTANCE: PART-1-1                                                                        
 LARGEST CORRECTION TO ROTATION    -8.861E-04   AT NODE        328   DOF  5
   INSTANCE: PART-1-1                                                                        
          MOMENT    EQUILIBRIUM NOT ACHIEVED WITHIN TOLERANCE.

  NUMBER OF EQUATIONS =      2415     NUMBER OF RHS =    1
  NUMBER OF FLOATING PT. OPERATIONS =  5.10E+06

     CHECK POINT   START OF SOLVER    

     CHECK POINT  END OF SOLVER       

       ELAPSED USER TIME (SEC)      =   0.0000    
       ELAPSED SYSTEM TIME (SEC)    =   0.0000    
       ELAPSED TOTAL CPU TIME (SEC) =   0.0000    
       ELAPSED WALLCLOCK TIME (SEC) =          0
 

 ***WARNING: THE SYSTEM MATRIX HAS 3 NEGATIVE EIGENVALUES.
             EXPLANATIONS ARE SUGGESTED AFTER THE FIRST OCCURRENCE OF THIS MESSAGE.

               CONVERGENCE CHECKS FOR EQUILIBRIUM ITERATION     3


 AVERAGE FORCE                      4.223E-07   TIME AVG. FORCE       4.223E-07
 LARGEST RESIDUAL FORCE            -3.247E-05   AT NODE          1   DOF  2
   INSTANCE: REFPOINT-0                                                                      
 LARGEST INCREMENT OF DISP.         -4.14       AT NODE        401   DOF  3
   INSTANCE: PART-1-1                                                                        
 LARGEST CORRECTION TO DISP.       -3.126E-02   AT NODE        232   DOF  3
   INSTANCE: PART-1-1                                                                        
          FORCE     EQUILIBRIUM NOT ACHIEVED WITHIN TOLERANCE.

 AVERAGE MOMENT                     5.696E-07   TIME AVG. MOMENT      5.696E-07
 LARGEST RESIDUAL MOMENT            2.551E-06   AT NODE        170   DOF  5
   INSTANCE: PART-1-1                                                                        
 LARGEST INCREMENT OF ROTATION     -6.696E-02   AT NODE        404   DOF  4
   INSTANCE: PART-1-1                                                                        
 LARGEST CORRECTION TO ROTATION    -1.347E-03   AT NODE        145   DOF  4
   INSTANCE: PART-1-1                                                                        
          MOMENT    EQUILIBRIUM NOT ACHIEVED WITHIN TOLERANCE.

  NUMBER OF EQUATIONS =      2415     NUMBER OF RHS =    1
  NUMBER OF FLOATING PT. OPERATIONS =  5.10E+06

     CHECK POINT   START OF SOLVER    

     CHECK POINT  END OF SOLVER       

       ELAPSED USER TIME (SEC)      =  1.00000E-02
       ELAPSED SYSTEM TIME (SEC)    =   0.0000    
       ELAPSED TOTAL CPU TIME (SEC) =  1.00000E-02
       ELAPSED WALLCLOCK TIME (SEC) =          0

               CONVERGENCE CHECKS FOR EQUILIBRIUM ITERATION     4


 AVERAGE FORCE                      3.394E-07   TIME AVG. FORCE       3.394E-07
 LARGEST RESIDUAL FORCE            -5.324E-05   AT NODE          1   DOF  2
   INSTANCE: REFPOINT-0                                                                      
 LARGEST INCREMENT OF DISP.         -4.09       AT NODE        401   DOF  3
   INSTANCE: PART-1-1                                                                        
 LARGEST CORRECTION TO DISP.        4.644E-02   AT NODE        401   DOF  3
   INSTANCE: PART-1-1                                                                        
          FORCE     EQUILIBRIUM NOT ACHIEVED WITHIN TOLERANCE.

 AVERAGE MOMENT                     5.374E-07   TIME AVG. MOMENT      5.374E-07
 LARGEST RESIDUAL MOMENT            5.065E-07   AT NODE        167   DOF  5
   INSTANCE: PART-1-1                                                                        
 LARGEST INCREMENT OF ROTATION     -6.577E-02   AT NODE        281   DOF  4
   INSTANCE: PART-1-1                                                                        
 LARGEST CORRECTION TO ROTATION     1.476E-03   AT NODE        156   DOF  4
   INSTANCE: PART-1-1                                                                        
          MOMENT    EQUILIBRIUM NOT ACHIEVED WITHIN TOLERANCE.

  NUMBER OF EQUATIONS =      2415     NUMBER OF RHS =    1
  NUMBER OF FLOATING PT. OPERATIONS =  5.10E+06

     CHECK POINT   START OF SOLVER    

     CHECK POINT  END OF SOLVER       

       ELAPSED USER TIME (SEC)      =  1.00000E-02
       ELAPSED SYSTEM TIME (SEC)    =   0.0000    
       ELAPSED TOTAL CPU TIME (SEC) =  1.00000E-02
       ELAPSED WALLCLOCK TIME (SEC) =          0

               CONVERGENCE CHECKS FOR EQUILIBRIUM ITERATION     5


 AVERAGE FORCE                      3.304E-08   TIME AVG. FORCE       1.172E-02
                                                (FROM MOMENT    FIELD)
 LARGEST RESIDUAL FORCE            -1.914E-06   AT NODE          1   DOF  2
   INSTANCE: REFPOINT-0                                                                      
 LARGEST INCREMENT OF DISP.         -4.08       AT NODE        401   DOF  3
   INSTANCE: PART-1-1                                                                        
 LARGEST CORRECTION TO DISP.        1.410E-02   AT NODE        401   DOF  3
   INSTANCE: PART-1-1                                                                        
          THE FORCE     IS ZERO EVERYWHERE BUT THE FORCE     RESIDUAL OR
          THE DISP.    CORRECTION IS NON-ZERO

 AVERAGE MOMENT                     5.358E-07   TIME AVG. MOMENT      5.358E-07
 LARGEST RESIDUAL MOMENT            3.420E-08   AT NODE        151   DOF  4
   INSTANCE: PART-1-1                                                                        
 LARGEST INCREMENT OF ROTATION     -6.561E-02   AT NODE        284   DOF  4
   INSTANCE: PART-1-1                                                                        
 LARGEST CORRECTION TO ROTATION     2.823E-04   AT NODE        156   DOF  4
   INSTANCE: PART-1-1                                                                        
          MOMENT    EQUILIBRIUM NOT ACHIEVED WITHIN TOLERANCE.

  NUMBER OF EQUATIONS =      2415     NUMBER OF RHS =    1
  NUMBER OF FLOATING PT. OPERATIONS =  5.10E+06

     CHECK POINT   START OF SOLVER    

     CHECK POINT  END OF SOLVER       

       ELAPSED USER TIME (SEC)      =  1.00000E-02
       ELAPSED SYSTEM TIME (SEC)    =   0.0000    
       ELAPSED TOTAL CPU TIME (SEC) =  1.00000E-02
       ELAPSED WALLCLOCK TIME (SEC) =          0

               CONVERGENCE CHECKS FOR EQUILIBRIUM ITERATION     6


 AVERAGE FORCE                      2.234E-08   TIME AVG. FORCE       1.172E-02
                                                (FROM MOMENT    FIELD)
 LARGEST RESIDUAL FORCE            -1.018E-06   AT NODE          1   DOF  2
   INSTANCE: REFPOINT-0                                                                      
 LARGEST INCREMENT OF DISP.         -4.07       AT NODE        401   DOF  3
   INSTANCE: PART-1-1                                                                        
 LARGEST CORRECTION TO DISP.        8.002E-03   AT NODE        401   DOF  3
   INSTANCE: PART-1-1                                                                        
          THE FORCE     IS ZERO EVERYWHERE BUT THE FORCE     RESIDUAL OR
          THE DISP.    CORRECTION IS NON-ZERO

 AVERAGE MOMENT                     5.352E-07   TIME AVG. MOMENT      5.352E-07
 LARGEST RESIDUAL MOMENT            8.134E-10   AT NODE        167   DOF  4
   INSTANCE: PART-1-1                                                                        
 LARGEST INCREMENT OF ROTATION     -6.548E-02   AT NODE        277   DOF  4
   INSTANCE: PART-1-1                                                                        
 LARGEST CORRECTION TO ROTATION     1.893E-04   AT NODE        404   DOF  4
   INSTANCE: PART-1-1                                                                        
          THE MOMENT    EQUILIBRIUM EQUATIONS HAVE CONVERGED

  NUMBER OF EQUATIONS =      2415     NUMBER OF RHS =    1
  NUMBER OF FLOATING PT. OPERATIONS =  5.10E+06

     CHECK POINT   START OF SOLVER    

     CHECK POINT  END OF SOLVER       

       ELAPSED USER TIME (SEC)      =   0.0000    
       ELAPSED SYSTEM TIME (SEC)    =   0.0000    
       ELAPSED TOTAL CPU TIME (SEC) =   0.0000    
       ELAPSED WALLCLOCK TIME (SEC) =          0

               CONVERGENCE CHECKS FOR EQUILIBRIUM ITERATION     7


 AVERAGE FORCE                      1.758E-08   TIME AVG. FORCE       1.172E-02
                                                (FROM MOMENT    FIELD)
 LARGEST RESIDUAL FORCE            -1.945E-09   AT NODE          1   DOF  2
   INSTANCE: REFPOINT-0                                                                      
 LARGEST INCREMENT OF DISP.         -4.07       AT NODE        401   DOF  3
   INSTANCE: PART-1-1                                                                        
 LARGEST CORRECTION TO DISP.        2.950E-04   AT NODE        401   DOF  3
   INSTANCE: PART-1-1                                                                        
          THERE IS ZERO FORCE     EVERYWHERE

 AVERAGE MOMENT                     5.352E-07   TIME AVG. MOMENT      5.352E-07
 LARGEST RESIDUAL MOMENT            1.756E-11   AT NODE        398   DOF  4
   INSTANCE: PART-1-1                                                                        
 LARGEST INCREMENT OF ROTATION     -6.547E-02   AT NODE        277   DOF  4
   INSTANCE: PART-1-1                                                                        
 LARGEST CORRECTION TO ROTATION     8.288E-06   AT NODE        401   DOF  4
   INSTANCE: PART-1-1                                                                        
          THE MOMENT    EQUILIBRIUM EQUATIONS HAVE CONVERGED
          TIME INCREMENT REDUCED TO   7.039E-02 TO MEET NEXT OUTPUT TIME POINT

 ITERATION SUMMARY FOR THE INCREMENT:   7 TOTAL ITERATIONS, OF WHICH
   0 ARE SEVERE DISCONTINUITY ITERATIONS AND  7 ARE EQUILIBRIUM ITERATIONS.

 TIME INCREMENT COMPLETED  7.400E-02,  FRACTION OF STEP COMPLETED  3.700E-02
 STEP TIME COMPLETED       7.400E-02,  TOTAL TIME COMPLETED        7.400E-02


  INCREMENT     2 STARTS. ATTEMPT NUMBER  1, TIME INCREMENT  7.039E-02

  NUMBER OF EQUATIONS =      2415     NUMBER OF RHS =    1
  NUMBER OF FLOATING PT. OPERATIONS =  5.10E+06

     CHECK POINT   START OF SOLVER    

     CHECK POINT  END OF SOLVER       

       ELAPSED USER TIME (SEC)      =   0.0000    
       ELAPSED SYSTEM TIME (SEC)    =   0.0000    
       ELAPSED TOTAL CPU TIME (SEC) =   0.0000    
       ELAPSED WALLCLOCK TIME (SEC) =          0
 

 ***WARNING: THE SYSTEM MATRIX HAS 11 NEGATIVE EIGENVALUES.
             EXPLANATIONS ARE SUGGESTED AFTER THE FIRST OCCURRENCE OF THIS MESSAGE.

               CONVERGENCE CHECKS FOR EQUILIBRIUM ITERATION     1


 AVERAGE FORCE                      0.650       TIME AVG. FORCE       0.650    
 LARGEST RESIDUAL FORCE             -26.6       AT NODE        180   DOF  3
   INSTANCE: PART-1-1                                                                        
 LARGEST INCREMENT OF DISP.          14.5       AT NODE        377   DOF  3
   INSTANCE: PART-1-1                                                                        
 LARGEST CORRECTION TO DISP.         18.1       AT NODE        385   DOF  3
   INSTANCE: PART-1-1                                                                        
          FORCE     EQUILIBRIUM NOT ACHIEVED WITHIN TOLERANCE.

 AVERAGE MOMENT                     0.822       TIME AVG. MOMENT      0.411    
 LARGEST RESIDUAL MOMENT            -40.3       AT NODE        179   DOF  4
   INSTANCE: PART-1-1                                                                        
 LARGEST INCREMENT OF ROTATION      0.681       AT NODE        184   DOF  4
   INSTANCE: PART-1-1                                                                        
 LARGEST CORRECTION TO ROTATION     0.740       AT NODE        184   DOF  4
   INSTANCE: PART-1-1                                                                        
          MOMENT    EQUILIBRIUM NOT ACHIEVED WITHIN TOLERANCE.

  NUMBER OF EQUATIONS =      2415     NUMBER OF RHS =    1
  NUMBER OF FLOATING PT. OPERATIONS =  5.10E+06

     CHECK POINT   START OF SOLVER    

     CHECK POINT  END OF SOLVER       

       ELAPSED USER TIME (SEC)      =  1.00000E-02
       ELAPSED SYSTEM TIME (SEC)    =   0.0000    
       ELAPSED TOTAL CPU TIME (SEC) =  1.00000E-02
       ELAPSED WALLCLOCK TIME (SEC) =          0
 

 ***WARNING: THE SYSTEM MATRIX HAS 230 NEGATIVE EIGENVALUES.
             EXPLANATIONS ARE SUGGESTED AFTER THE FIRST OCCURRENCE OF THIS MESSAGE.

               CONVERGENCE CHECKS FOR EQUILIBRIUM ITERATION     2


 AVERAGE FORCE                      0.366       TIME AVG. FORCE       0.366    
 LARGEST RESIDUAL FORCE              268.       AT NODE        376   DOF  3
   INSTANCE: PART-1-1                                                                        
 LARGEST INCREMENT OF DISP.          15.0       AT NODE        369   DOF  3
   INSTANCE: PART-1-1                                                                        
 LARGEST CORRECTION TO DISP.        -4.22       AT NODE        372   DOF  2
   INSTANCE: PART-1-1                                                                        
          FORCE     EQUILIBRIUM NOT ACHIEVED WITHIN TOLERANCE.

 AVERAGE MOMENT                     0.578       TIME AVG. MOMENT      0.289    
 LARGEST RESIDUAL MOMENT             235.       AT NODE        375   DOF  4
   INSTANCE: PART-1-1                                                                        
 LARGEST INCREMENT OF ROTATION       3.60       AT NODE        285   DOF  5
   INSTANCE: PART-1-1                                                                        
 LARGEST CORRECTION TO ROTATION     -3.80       AT NODE        376   DOF  4
   INSTANCE: PART-1-1                                                                        
          MOMENT    EQUILIBRIUM NOT ACHIEVED WITHIN TOLERANCE.

  NUMBER OF EQUATIONS =      2415     NUMBER OF RHS =    1
  NUMBER OF FLOATING PT. OPERATIONS =  5.10E+06

     CHECK POINT   START OF SOLVER    

     CHECK POINT  END OF SOLVER       

       ELAPSED USER TIME (SEC)      =  1.00000E-02
       ELAPSED SYSTEM TIME (SEC)    =   0.0000    
       ELAPSED TOTAL CPU TIME (SEC) =  1.00000E-02
       ELAPSED WALLCLOCK TIME (SEC) =          0
 

 ***WARNING: THE SYSTEM MATRIX HAS 163 NEGATIVE EIGENVALUES.
             EXPLANATIONS ARE SUGGESTED AFTER THE FIRST OCCURRENCE OF THIS MESSAGE.

               CONVERGENCE CHECKS FOR EQUILIBRIUM ITERATION     3


 AVERAGE FORCE                       33.8       TIME AVG. FORCE        33.8    
 LARGEST RESIDUAL FORCE             9.043E+03   AT NODE        313   DOF  3
   INSTANCE: PART-1-1                                                                        
 LARGEST INCREMENT OF DISP.         -62.8       AT NODE        313   DOF  3
   INSTANCE: PART-1-1                                                                        
 LARGEST CORRECTION TO DISP.        -72.7       AT NODE        313   DOF  3
   INSTANCE: PART-1-1                                                                        
          FORCE     EQUILIBRIUM NOT ACHIEVED WITHIN TOLERANCE.

 AVERAGE MOMENT                      330.       TIME AVG. MOMENT       165.    
 LARGEST RESIDUAL MOMENT            8.426E+04   AT NODE        331   DOF  5
   INSTANCE: PART-1-1                                                                        
 LARGEST INCREMENT OF ROTATION       5.83       AT NODE        162   DOF  4
   INSTANCE: PART-1-1                                                                        
 LARGEST CORRECTION TO ROTATION     -105.       AT NODE        332   DOF  5
   INSTANCE: PART-1-1                                                                        
          MOMENT    EQUILIBRIUM NOT ACHIEVED WITHIN TOLERANCE.

  NUMBER OF EQUATIONS =      2415     NUMBER OF RHS =    1
  NUMBER OF FLOATING PT. OPERATIONS =  5.10E+06

     CHECK POINT   START OF SOLVER    

     CHECK POINT  END OF SOLVER       

       ELAPSED USER TIME (SEC)      =  1.00000E-02
       ELAPSED SYSTEM TIME (SEC)    =   0.0000    
       ELAPSED TOTAL CPU TIME (SEC) =  1.00000E-02
       ELAPSED WALLCLOCK TIME (SEC) =          0
 

 ***WARNING: THE SYSTEM MATRIX HAS 959 NEGATIVE EIGENVALUES.
             EXPLANATIONS ARE SUGGESTED AFTER THE FIRST OCCURRENCE OF THIS MESSAGE.

               CONVERGENCE CHECKS FOR EQUILIBRIUM ITERATION     4


 AVERAGE FORCE                       190.       TIME AVG. FORCE        190.    
 LARGEST RESIDUAL FORCE             3.086E+04   AT NODE        282   DOF  1
   INSTANCE: PART-1-1                                                                        
 LARGEST INCREMENT OF DISP.         -414.       AT NODE        296   DOF  1
   INSTANCE: PART-1-1                                                                        
 LARGEST CORRECTION TO DISP.        -405.       AT NODE        296   DOF  1
   INSTANCE: PART-1-1                                                                        
          FORCE     EQUILIBRIUM NOT ACHIEVED WITHIN TOLERANCE.

 AVERAGE MOMENT                     1.134E+04   TIME AVG. MOMENT      5.671E+03
 LARGEST RESIDUAL MOMENT           -9.651E+05   AT NODE         51   DOF  5
   INSTANCE: PART-1-1                                                                        
 LARGEST INCREMENT OF ROTATION       5.82       AT NODE         11   DOF  5
   INSTANCE: PART-1-1                                                                        
 LARGEST CORRECTION TO ROTATION      223.       AT NODE         13   DOF  6
   INSTANCE: PART-1-1                                                                        
          MOMENT    EQUILIBRIUM NOT ACHIEVED WITHIN TOLERANCE.
 

 ***NOTE: THE SOLUTION APPEARS TO BE DIVERGING. CONVERGENCE IS JUDGED UNLIKELY.


  INCREMENT     2 STARTS. ATTEMPT NUMBER  2, TIME INCREMENT  1.760E-02

  NUMBER OF EQUATIONS =      2415     NUMBER OF RHS =    1
  NUMBER OF FLOATING PT. OPERATIONS =  5.10E+06

     CHECK POINT   START OF SOLVER    

     CHECK POINT  END OF SOLVER       

       ELAPSED USER TIME (SEC)      =  1.00000E-02
       ELAPSED SYSTEM TIME (SEC)    =   0.0000    
       ELAPSED TOTAL CPU TIME (SEC) =  1.00000E-02
       ELAPSED WALLCLOCK TIME (SEC) =          0
 

 ***WARNING: THE SYSTEM MATRIX HAS 2 NEGATIVE EIGENVALUES.
             EXPLANATIONS ARE SUGGESTED AFTER THE FIRST OCCURRENCE OF THIS MESSAGE.

               CONVERGENCE CHECKS FOR EQUILIBRIUM ITERATION     1


 AVERAGE FORCE                      2.747E-02   TIME AVG. FORCE       2.747E-02
 LARGEST RESIDUAL FORCE              1.62       AT NODE        317   DOF  1
   INSTANCE: PART-1-1                                                                        
 LARGEST INCREMENT OF DISP.         -2.13       AT NODE        265   DOF  3
   INSTANCE: PART-1-1                                                                        
 LARGEST CORRECTION TO DISP.        -1.56       AT NODE        257   DOF  3
   INSTANCE: PART-1-1                                                                        
          FORCE     EQUILIBRIUM NOT ACHIEVED WITHIN TOLERANCE.

 AVERAGE MOMENT                     2.339E-02   TIME AVG. MOMENT      1.169E-02
 LARGEST RESIDUAL MOMENT            0.718       AT NODE        314   DOF  5
   INSTANCE: PART-1-1                                                                        
 LARGEST INCREMENT OF ROTATION     -0.294       AT NODE        320   DOF  5
   INSTANCE: PART-1-1                                                                        
 LARGEST CORRECTION TO ROTATION    -0.294       AT NODE        320   DOF  5
   INSTANCE: PART-1-1                                                                        
          MOMENT    EQUILIBRIUM NOT ACHIEVED WITHIN TOLERANCE.

  NUMBER OF EQUATIONS =      2415     NUMBER OF RHS =    1
  NUMBER OF FLOATING PT. OPERATIONS =  5.10E+06

     CHECK POINT   START OF SOLVER    

     CHECK POINT  END OF SOLVER       

       ELAPSED USER TIME (SEC)      =  1.00000E-02
       ELAPSED SYSTEM TIME (SEC)    =   0.0000    
       ELAPSED TOTAL CPU TIME (SEC) =  1.00000E-02
       ELAPSED WALLCLOCK TIME (SEC) =          0
 

 ***WARNING: THE SYSTEM MATRIX HAS 23 NEGATIVE EIGENVALUES.
             EXPLANATIONS ARE SUGGESTED AFTER THE FIRST OCCURRENCE OF THIS MESSAGE.

               CONVERGENCE CHECKS FOR EQUILIBRIUM ITERATION     2


 AVERAGE FORCE                      9.783E-02   TIME AVG. FORCE       9.783E-02
 LARGEST RESIDUAL FORCE              29.9       AT NODE        320   DOF  2
   INSTANCE: PART-1-1                                                                        
 LARGEST INCREMENT OF DISP.          2.06       AT NODE        401   DOF  3
   INSTANCE: PART-1-1                                                                        
 LARGEST CORRECTION TO DISP.         3.55       AT NODE        288   DOF  3
   INSTANCE: PART-1-1                                                                        
          FORCE     EQUILIBRIUM NOT ACHIEVED WITHIN TOLERANCE.

 AVERAGE MOMENT                     0.129       TIME AVG. MOMENT      6.428E-02
 LARGEST RESIDUAL MOMENT            -14.6       AT NODE        319   DOF  6
   INSTANCE: PART-1-1                                                                        
 LARGEST INCREMENT OF ROTATION       1.68       AT NODE        312   DOF  4
   INSTANCE: PART-1-1                                                                        
 LARGEST CORRECTION TO ROTATION     -1.65       AT NODE        313   DOF  4
   INSTANCE: PART-1-1                                                                        
          MOMENT    EQUILIBRIUM NOT ACHIEVED WITHIN TOLERANCE.

  NUMBER OF EQUATIONS =      2415     NUMBER OF RHS =    1
  NUMBER OF FLOATING PT. OPERATIONS =  5.10E+06

     CHECK POINT   START OF SOLVER    

     CHECK POINT  END OF SOLVER       

       ELAPSED USER TIME (SEC)      =  1.00000E-02
       ELAPSED SYSTEM TIME (SEC)    =   0.0000    
       ELAPSED TOTAL CPU TIME (SEC) =  1.00000E-02
       ELAPSED WALLCLOCK TIME (SEC) =          0
 

 ***WARNING: THE SYSTEM MATRIX HAS 97 NEGATIVE EIGENVALUES.
             EXPLANATIONS ARE SUGGESTED AFTER THE FIRST OCCURRENCE OF THIS MESSAGE.

               CONVERGENCE CHECKS FOR EQUILIBRIUM ITERATION     3


 AVERAGE FORCE                       45.4       TIME AVG. FORCE        45.4    
 LARGEST RESIDUAL FORCE             8.902E+03   AT NODE        346   DOF  3
   INSTANCE: PART-1-1                                                                        
 LARGEST INCREMENT OF DISP.          53.3       AT NODE        360   DOF  3
   INSTANCE: PART-1-1                                                                        
 LARGEST CORRECTION TO DISP.         52.5       AT NODE        345   DOF  3
   INSTANCE: PART-1-1                                                                        
          FORCE     EQUILIBRIUM NOT ACHIEVED WITHIN TOLERANCE.

 AVERAGE MOMENT                      299.       TIME AVG. MOMENT       150.    
 LARGEST RESIDUAL MOMENT           -3.962E+04   AT NODE        364   DOF  5
   INSTANCE: PART-1-1                                                                        
 LARGEST INCREMENT OF ROTATION       6.02       AT NODE         52   DOF  5
   INSTANCE: PART-1-1                                                                        
 LARGEST CORRECTION TO ROTATION      64.9       AT NODE        345   DOF  5
   INSTANCE: PART-1-1                                                                        
          MOMENT    EQUILIBRIUM NOT ACHIEVED WITHIN TOLERANCE.

  NUMBER OF EQUATIONS =      2415     NUMBER OF RHS =    1
  NUMBER OF FLOATING PT. OPERATIONS =  5.10E+06

     CHECK POINT   START OF SOLVER    

     CHECK POINT  END OF SOLVER       

       ELAPSED USER TIME (SEC)      =  1.00000E-02
       ELAPSED SYSTEM TIME (SEC)    =   0.0000    
       ELAPSED TOTAL CPU TIME (SEC) =  1.00000E-02
       ELAPSED WALLCLOCK TIME (SEC) =          0
 

 ***WARNING: THE SYSTEM MATRIX HAS 1015 NEGATIVE EIGENVALUES.
             EXPLANATIONS ARE SUGGESTED AFTER THE FIRST OCCURRENCE OF THIS MESSAGE.

               CONVERGENCE CHECKS FOR EQUILIBRIUM ITERATION     4


 AVERAGE FORCE                       424.       TIME AVG. FORCE        424.    
 LARGEST RESIDUAL FORCE             1.259E+05   AT NODE        235   DOF  3
   INSTANCE: PART-1-1                                                                        
 LARGEST INCREMENT OF DISP.         -522.       AT NODE        197   DOF  1
   INSTANCE: PART-1-1                                                                        
 LARGEST CORRECTION TO DISP.        -524.       AT NODE        197   DOF  1
   INSTANCE: PART-1-1                                                                        
          FORCE     EQUILIBRIUM NOT ACHIEVED WITHIN TOLERANCE.

 AVERAGE MOMENT                     1.046E+05   TIME AVG. MOMENT      5.228E+04
 LARGEST RESIDUAL MOMENT            3.014E+07   AT NODE        236   DOF  5
   INSTANCE: PART-1-1                                                                        
 LARGEST INCREMENT OF ROTATION       5.59       AT NODE         44   DOF  5
   INSTANCE: PART-1-1                                                                        
 LARGEST CORRECTION TO ROTATION    -1.053E+03   AT NODE        201   DOF  6
   INSTANCE: PART-1-1                                                                        
          MOMENT    EQUILIBRIUM NOT ACHIEVED WITHIN TOLERANCE.
 

 ***NOTE: THE SOLUTION APPEARS TO BE DIVERGING. CONVERGENCE IS JUDGED UNLIKELY.


  INCREMENT     2 STARTS. ATTEMPT NUMBER  3, TIME INCREMENT  4.399E-03

  NUMBER OF EQUATIONS =      2415     NUMBER OF RHS =    1
  NUMBER OF FLOATING PT. OPERATIONS =  5.10E+06

     CHECK POINT   START OF SOLVER    

     CHECK POINT  END OF SOLVER       

       ELAPSED USER TIME (SEC)      =   0.0000    
       ELAPSED SYSTEM TIME (SEC)    =   0.0000    
       ELAPSED TOTAL CPU TIME (SEC) =   0.0000    
       ELAPSED WALLCLOCK TIME (SEC) =          0

               CONVERGENCE CHECKS FOR EQUILIBRIUM ITERATION     1


 AVERAGE FORCE                      5.432E-06   TIME AVG. FORCE       5.432E-06
 LARGEST RESIDUAL FORCE            -4.832E-04   AT NODE          1   DOF  2
   INSTANCE: REFPOINT-0                                                                      
 LARGEST INCREMENT OF DISP.        -0.257       AT NODE        401   DOF  3
   INSTANCE: PART-1-1                                                                        
 LARGEST CORRECTION TO DISP.       -0.257       AT NODE        401   DOF  3
   INSTANCE: PART-1-1                                                                        
          FORCE     EQUILIBRIUM NOT ACHIEVED WITHIN TOLERANCE.

 AVERAGE MOMENT                     1.260E-06   TIME AVG. MOMENT      8.976E-07
 LARGEST RESIDUAL MOMENT            2.815E-06   AT NODE        283   DOF  4
   INSTANCE: PART-1-1                                                                        
 LARGEST INCREMENT OF ROTATION     -4.133E-03   AT NODE        281   DOF  4
   INSTANCE: PART-1-1                                                                        
 LARGEST CORRECTION TO ROTATION    -4.133E-03   AT NODE        281   DOF  4
   INSTANCE: PART-1-1                                                                        
          MOMENT    EQUILIBRIUM NOT ACHIEVED WITHIN TOLERANCE.

  NUMBER OF EQUATIONS =      2415     NUMBER OF RHS =    1
  NUMBER OF FLOATING PT. OPERATIONS =  5.10E+06

     CHECK POINT   START OF SOLVER    

     CHECK POINT  END OF SOLVER       

       ELAPSED USER TIME (SEC)      =   0.0000    
       ELAPSED SYSTEM TIME (SEC)    =   0.0000    
       ELAPSED TOTAL CPU TIME (SEC) =   0.0000    
       ELAPSED WALLCLOCK TIME (SEC) =          0

               CONVERGENCE CHECKS FOR EQUILIBRIUM ITERATION     2


 AVERAGE FORCE                      3.442E-08   TIME AVG. FORCE       1.000E-02
 LARGEST RESIDUAL FORCE             6.080E-09   AT NODE          1   DOF  2
   INSTANCE: REFPOINT-0                                                                      
 LARGEST INCREMENT OF DISP.        -0.257       AT NODE        401   DOF  3
   INSTANCE: PART-1-1                                                                        
 LARGEST CORRECTION TO DISP.       -4.790E-04   AT NODE        401   DOF  2
   INSTANCE: PART-1-1                                                                        
          THERE IS ZERO FORCE     EVERYWHERE
 

 ***WARNING: THERE IS ZERO FORCE EVERYWHERE IN THE MODEL BASED ON THE DEFAULT 
             CRITERION. PLEASE CHECK THE VALUE OF THE AVERAGE FORCE DURING THE 
             CURRENT ITERATION TO VERIFY THAT THE FORCE IS SMALL ENOUGH TO BE 
             TREATED AS ZERO. IF NOT, PLEASE USE THE SOLUTION CONTROLS TO RESET 
             THE CRITERION FOR ZERO FORCE.

 AVERAGE MOMENT                     1.202E-06   TIME AVG. MOMENT      8.684E-07
 LARGEST RESIDUAL MOMENT            1.614E-09   AT NODE        179   DOF  4
   INSTANCE: PART-1-1                                                                        
 LARGEST INCREMENT OF ROTATION     -4.132E-03   AT NODE        281   DOF  4
   INSTANCE: PART-1-1                                                                        
 LARGEST CORRECTION TO ROTATION    -2.927E-06   AT NODE         32   DOF  4
   INSTANCE: PART-1-1                                                                        
          THE MOMENT    EQUILIBRIUM EQUATIONS HAVE CONVERGED

 ITERATION SUMMARY FOR THE INCREMENT:   2 TOTAL ITERATIONS, OF WHICH
   0 ARE SEVERE DISCONTINUITY ITERATIONS AND  2 ARE EQUILIBRIUM ITERATIONS.

 TIME INCREMENT COMPLETED  4.399E-03,  FRACTION OF STEP COMPLETED  3.920E-02
 STEP TIME COMPLETED       7.840E-02,  TOTAL TIME COMPLETED        7.840E-02


  INCREMENT     3 STARTS. ATTEMPT NUMBER  1, TIME INCREMENT  4.399E-03

  NUMBER OF EQUATIONS =      2415     NUMBER OF RHS =    1
  NUMBER OF FLOATING PT. OPERATIONS =  5.10E+06

     CHECK POINT   START OF SOLVER    

     CHECK POINT  END OF SOLVER       

       ELAPSED USER TIME (SEC)      =  1.00000E-02
       ELAPSED SYSTEM TIME (SEC)    =  1.00000E-02
       ELAPSED TOTAL CPU TIME (SEC) =  2.00000E-02
       ELAPSED WALLCLOCK TIME (SEC) =          0

               CONVERGENCE CHECKS FOR EQUILIBRIUM ITERATION     1


 AVERAGE FORCE                      6.125E-08   TIME AVG. FORCE       1.000E-02
 LARGEST RESIDUAL FORCE             2.233E-06   AT NODE          1   DOF  3
   INSTANCE: REFPOINT-0                                                                      
 LARGEST INCREMENT OF DISP.        -0.273       AT NODE        401   DOF  3
   INSTANCE: PART-1-1                                                                        
 LARGEST CORRECTION TO DISP.       -1.598E-02   AT NODE          1   DOF  3
   INSTANCE: REFPOINT-0                                                                      
          THE FORCE     IS ZERO EVERYWHERE BUT THE FORCE     RESIDUAL OR
          THE DISP.    CORRECTION IS NON-ZERO

 AVERAGE MOMENT                     1.241E-06   TIME AVG. MOMENT      9.924E-07
 LARGEST RESIDUAL MOMENT           -5.256E-07   AT NODE        307   DOF  4
   INSTANCE: PART-1-1                                                                        
 LARGEST INCREMENT OF ROTATION     -4.390E-03   AT NODE        285   DOF  4
   INSTANCE: PART-1-1                                                                        
 LARGEST CORRECTION TO ROTATION    -2.605E-04   AT NODE        401   DOF  4
   INSTANCE: PART-1-1                                                                        
          MOMENT    EQUILIBRIUM NOT ACHIEVED WITHIN TOLERANCE.

  NUMBER OF EQUATIONS =      2415     NUMBER OF RHS =    1
  NUMBER OF FLOATING PT. OPERATIONS =  5.10E+06

     CHECK POINT   START OF SOLVER    

     CHECK POINT  END OF SOLVER       

       ELAPSED USER TIME (SEC)      =   0.0000    
       ELAPSED SYSTEM TIME (SEC)    =   0.0000    
       ELAPSED TOTAL CPU TIME (SEC) =   0.0000    
       ELAPSED WALLCLOCK TIME (SEC) =          0

               CONVERGENCE CHECKS FOR EQUILIBRIUM ITERATION     2


 AVERAGE FORCE                      2.233E-08   TIME AVG. FORCE       1.000E-02
 LARGEST RESIDUAL FORCE            -5.110E-11   AT NODE          1   DOF  2
   INSTANCE: REFPOINT-0                                                                      
 LARGEST INCREMENT OF DISP.        -0.273       AT NODE        401   DOF  3
   INSTANCE: PART-1-1                                                                        
 LARGEST CORRECTION TO DISP.        1.336E-05   AT NODE          1   DOF  3
   INSTANCE: REFPOINT-0                                                                      
          THERE IS ZERO FORCE     EVERYWHERE
 

 ***WARNING: THERE IS ZERO FORCE EVERYWHERE IN THE MODEL BASED ON THE DEFAULT 
             CRITERION. PLEASE CHECK THE VALUE OF THE AVERAGE FORCE DURING THE 
             CURRENT ITERATION TO VERIFY THAT THE FORCE IS SMALL ENOUGH TO BE 
             TREATED AS ZERO. IF NOT, PLEASE USE THE SOLUTION CONTROLS TO RESET 
             THE CRITERION FOR ZERO FORCE.

 AVERAGE MOMENT                     1.273E-06   TIME AVG. MOMENT      1.003E-06
 LARGEST RESIDUAL MOMENT            5.409E-12   AT NODE        398   DOF  4
   INSTANCE: PART-1-1                                                                        
 LARGEST INCREMENT OF ROTATION     -4.390E-03   AT NODE        285   DOF  4
   INSTANCE: PART-1-1                                                                        
 LARGEST CORRECTION TO ROTATION     1.390E-06   AT NODE        401   DOF  4
   INSTANCE: PART-1-1                                                                        
          THE MOMENT    EQUILIBRIUM EQUATIONS HAVE CONVERGED
          TIME INCREMENT MAY NOW INCREASE TO    6.599E-03

 ITERATION SUMMARY FOR THE INCREMENT:   2 TOTAL ITERATIONS, OF WHICH
   0 ARE SEVERE DISCONTINUITY ITERATIONS AND  2 ARE EQUILIBRIUM ITERATIONS.

 TIME INCREMENT COMPLETED  4.399E-03,  FRACTION OF STEP COMPLETED  4.140E-02
 STEP TIME COMPLETED       8.280E-02,  TOTAL TIME COMPLETED        8.280E-02


  INCREMENT     4 STARTS. ATTEMPT NUMBER  1, TIME INCREMENT  6.599E-03

  NUMBER OF EQUATIONS =      2415     NUMBER OF RHS =    1
  NUMBER OF FLOATING PT. OPERATIONS =  5.10E+06

     CHECK POINT   START OF SOLVER    

     CHECK POINT  END OF SOLVER       

       ELAPSED USER TIME (SEC)      =   0.0000    
       ELAPSED SYSTEM TIME (SEC)    =   0.0000    
       ELAPSED TOTAL CPU TIME (SEC) =   0.0000    
       ELAPSED WALLCLOCK TIME (SEC) =          0

               CONVERGENCE CHECKS FOR EQUILIBRIUM ITERATION     1


 AVERAGE FORCE                      2.441E-07   TIME AVG. FORCE       2.441E-07
 LARGEST RESIDUAL FORCE             1.194E-05   AT NODE          1   DOF  3
   INSTANCE: REFPOINT-0                                                                      
 LARGEST INCREMENT OF DISP.        -0.448       AT NODE        401   DOF  3
   INSTANCE: PART-1-1                                                                        
 LARGEST CORRECTION TO DISP.       -3.892E-02   AT NODE          1   DOF  3
   INSTANCE: REFPOINT-0                                                                      
          FORCE     EQUILIBRIUM NOT ACHIEVED WITHIN TOLERANCE.

 AVERAGE MOMENT                     1.459E-06   TIME AVG. MOMENT      1.117E-06
 LARGEST RESIDUAL MOMENT           -2.772E-06   AT NODE        271   DOF  4
   INSTANCE: PART-1-1                                                                        
 LARGEST INCREMENT OF ROTATION     -7.229E-03   AT NODE        281   DOF  4
   INSTANCE: PART-1-1                                                                        
 LARGEST CORRECTION TO ROTATION    -6.476E-04   AT NODE        401   DOF  4
   INSTANCE: PART-1-1                                                                        
          MOMENT    EQUILIBRIUM NOT ACHIEVED WITHIN TOLERANCE.

  NUMBER OF EQUATIONS =      2415     NUMBER OF RHS =    1
  NUMBER OF FLOATING PT. OPERATIONS =  5.10E+06

     CHECK POINT   START OF SOLVER    

     CHECK POINT  END OF SOLVER       

       ELAPSED USER TIME (SEC)      =  1.00000E-02
       ELAPSED SYSTEM TIME (SEC)    =   0.0000    
       ELAPSED TOTAL CPU TIME (SEC) =  1.00000E-02
       ELAPSED WALLCLOCK TIME (SEC) =          0

               CONVERGENCE CHECKS FOR EQUILIBRIUM ITERATION     2


 AVERAGE FORCE                      2.458E-08   TIME AVG. FORCE       1.000E-02
 LARGEST RESIDUAL FORCE            -4.848E-09   AT NODE          1   DOF  2
   INSTANCE: REFPOINT-0                                                                      
 LARGEST INCREMENT OF DISP.        -0.448       AT NODE        401   DOF  3
   INSTANCE: PART-1-1                                                                        
 LARGEST CORRECTION TO DISP.        1.726E-04   AT NODE        401   DOF  3
   INSTANCE: PART-1-1                                                                        
          THERE IS ZERO FORCE     EVERYWHERE
 

 ***WARNING: THERE IS ZERO FORCE EVERYWHERE IN THE MODEL BASED ON THE DEFAULT 
             CRITERION. PLEASE CHECK THE VALUE OF THE AVERAGE FORCE DURING THE 
             CURRENT ITERATION TO VERIFY THAT THE FORCE IS SMALL ENOUGH TO BE 
             TREATED AS ZERO. IF NOT, PLEASE USE THE SOLUTION CONTROLS TO RESET 
             THE CRITERION FOR ZERO FORCE.

 AVERAGE MOMENT                     1.388E-06   TIME AVG. MOMENT      1.099E-06
 LARGEST RESIDUAL MOMENT            3.275E-10   AT NODE        398   DOF  4
   INSTANCE: PART-1-1                                                                        
 LARGEST INCREMENT OF ROTATION     -7.226E-03   AT NODE        281   DOF  4
   INSTANCE: PART-1-1                                                                        
 LARGEST CORRECTION TO ROTATION     1.336E-05   AT NODE        401   DOF  4
   INSTANCE: PART-1-1                                                                        
          THE MOMENT    EQUILIBRIUM EQUATIONS HAVE CONVERGED
          TIME INCREMENT MAY NOW INCREASE TO    9.899E-03

 ITERATION SUMMARY FOR THE INCREMENT:   2 TOTAL ITERATIONS, OF WHICH
   0 ARE SEVERE DISCONTINUITY ITERATIONS AND  2 ARE EQUILIBRIUM ITERATIONS.

 TIME INCREMENT COMPLETED  6.599E-03,  FRACTION OF STEP COMPLETED  4.470E-02
 STEP TIME COMPLETED       8.940E-02,  TOTAL TIME COMPLETED        8.940E-02


  INCREMENT     5 STARTS. ATTEMPT NUMBER  1, TIME INCREMENT  9.899E-03

  NUMBER OF EQUATIONS =      2415     NUMBER OF RHS =    1
  NUMBER OF FLOATING PT. OPERATIONS =  5.10E+06

     CHECK POINT   START OF SOLVER    

     CHECK POINT  END OF SOLVER       

       ELAPSED USER TIME (SEC)      =  1.00000E-02
       ELAPSED SYSTEM TIME (SEC)    =   0.0000    
       ELAPSED TOTAL CPU TIME (SEC) =  1.00000E-02
       ELAPSED WALLCLOCK TIME (SEC) =          0

               CONVERGENCE CHECKS FOR EQUILIBRIUM ITERATION     1


 AVERAGE FORCE                      1.597E-06   TIME AVG. FORCE       1.597E-06
 LARGEST RESIDUAL FORCE             9.711E-05   AT NODE          1   DOF  3
   INSTANCE: REFPOINT-0                                                                      
 LARGEST INCREMENT OF DISP.        -0.773       AT NODE        401   DOF  3
   INSTANCE: PART-1-1                                                                        
 LARGEST CORRECTION TO DISP.       -0.101       AT NODE        401   DOF  3
   INSTANCE: PART-1-1                                                                        
          FORCE     EQUILIBRIUM NOT ACHIEVED WITHIN TOLERANCE.

 AVERAGE MOMENT                     2.619E-06   TIME AVG. MOMENT      1.403E-06
 LARGEST RESIDUAL MOMENT           -2.197E-05   AT NODE        391   DOF  4
   INSTANCE: PART-1-1                                                                        
 LARGEST INCREMENT OF ROTATION     -1.272E-02   AT NODE        401   DOF  4
   INSTANCE: PART-1-1                                                                        
 LARGEST CORRECTION TO ROTATION    -1.928E-03   AT NODE        401   DOF  4
   INSTANCE: PART-1-1                                                                        
          MOMENT    EQUILIBRIUM NOT ACHIEVED WITHIN TOLERANCE.

  NUMBER OF EQUATIONS =      2415     NUMBER OF RHS =    1
  NUMBER OF FLOATING PT. OPERATIONS =  5.10E+06

     CHECK POINT   START OF SOLVER    

     CHECK POINT  END OF SOLVER       

       ELAPSED USER TIME (SEC)      =  1.00000E-02
       ELAPSED SYSTEM TIME (SEC)    =   0.0000    
       ELAPSED TOTAL CPU TIME (SEC) =  1.00000E-02
       ELAPSED WALLCLOCK TIME (SEC) =          0

               CONVERGENCE CHECKS FOR EQUILIBRIUM ITERATION     2


 AVERAGE FORCE                      3.546E-08   TIME AVG. FORCE       1.000E-02
 LARGEST RESIDUAL FORCE            -7.620E-07   AT NODE          1   DOF  2
   INSTANCE: REFPOINT-0                                                                      
 LARGEST INCREMENT OF DISP.        -0.770       AT NODE        401   DOF  3
   INSTANCE: PART-1-1                                                                        
 LARGEST CORRECTION TO DISP.        2.874E-03   AT NODE        401   DOF  3
   INSTANCE: PART-1-1                                                                        
          THE FORCE     IS ZERO EVERYWHERE BUT THE FORCE     RESIDUAL OR
          THE DISP.    CORRECTION IS NON-ZERO

 AVERAGE MOMENT                     1.565E-06   TIME AVG. MOMENT      1.192E-06
 LARGEST RESIDUAL MOMENT           -6.731E-08   AT NODE        202   DOF  4
   INSTANCE: PART-1-1                                                                        
 LARGEST INCREMENT OF ROTATION     -1.255E-02   AT NODE        401   DOF  4
   INSTANCE: PART-1-1                                                                        
 LARGEST CORRECTION TO ROTATION     1.691E-04   AT NODE        401   DOF  4
   INSTANCE: PART-1-1                                                                        
          MOMENT    EQUILIBRIUM NOT ACHIEVED WITHIN TOLERANCE.

  NUMBER OF EQUATIONS =      2415     NUMBER OF RHS =    1
  NUMBER OF FLOATING PT. OPERATIONS =  5.10E+06

     CHECK POINT   START OF SOLVER    

     CHECK POINT  END OF SOLVER       

       ELAPSED USER TIME (SEC)      =  1.00000E-02
       ELAPSED SYSTEM TIME (SEC)    =   0.0000    
       ELAPSED TOTAL CPU TIME (SEC) =  1.00000E-02
       ELAPSED WALLCLOCK TIME (SEC) =          0

               CONVERGENCE CHECKS FOR EQUILIBRIUM ITERATION     3


 AVERAGE FORCE                      2.919E-08   TIME AVG. FORCE       1.000E-02
 LARGEST RESIDUAL FORCE            -2.578E-07   AT NODE          1   DOF  2
   INSTANCE: REFPOINT-0                                                                      
 LARGEST INCREMENT OF DISP.        -0.769       AT NODE        401   DOF  3
   INSTANCE: PART-1-1                                                                        
 LARGEST CORRECTION TO DISP.        1.172E-03   AT NODE          1   DOF  3
   INSTANCE: REFPOINT-0                                                                      
          THE FORCE     IS ZERO EVERYWHERE BUT THE FORCE     RESIDUAL OR
          THE DISP.    CORRECTION IS NON-ZERO

 AVERAGE MOMENT                     1.587E-06   TIME AVG. MOMENT      1.197E-06
 LARGEST RESIDUAL MOMENT           -5.605E-10   AT NODE        327   DOF  5
   INSTANCE: PART-1-1                                                                        
 LARGEST INCREMENT OF ROTATION     -1.251E-02   AT NODE        285   DOF  4
   INSTANCE: PART-1-1                                                                        
 LARGEST CORRECTION TO ROTATION     9.635E-05   AT NODE        401   DOF  4
   INSTANCE: PART-1-1                                                                        
          THE MOMENT    EQUILIBRIUM EQUATIONS HAVE CONVERGED

  NUMBER OF EQUATIONS =      2415     NUMBER OF RHS =    1
  NUMBER OF FLOATING PT. OPERATIONS =  5.10E+06

     CHECK POINT   START OF SOLVER    

     CHECK POINT  END OF SOLVER       

       ELAPSED USER TIME (SEC)      =  1.00000E-02
       ELAPSED SYSTEM TIME (SEC)    =   0.0000    
       ELAPSED TOTAL CPU TIME (SEC) =  1.00000E-02
       ELAPSED WALLCLOCK TIME (SEC) =          0

               CONVERGENCE CHECKS FOR EQUILIBRIUM ITERATION     4


 AVERAGE FORCE                      2.888E-08   TIME AVG. FORCE       1.000E-02
 LARGEST RESIDUAL FORCE            -3.228E-12   AT NODE        224   DOF  1
   INSTANCE: PART-1-1                                                                        
 LARGEST INCREMENT OF DISP.        -0.769       AT NODE        401   DOF  3
   INSTANCE: PART-1-1                                                                        
 LARGEST CORRECTION TO DISP.        3.470E-06   AT NODE          1   DOF  3
   INSTANCE: REFPOINT-0                                                                      
          THERE IS ZERO FORCE     EVERYWHERE
 

 ***WARNING: THERE IS ZERO FORCE EVERYWHERE IN THE MODEL BASED ON THE DEFAULT 
             CRITERION. PLEASE CHECK THE VALUE OF THE AVERAGE FORCE DURING THE 
             CURRENT ITERATION TO VERIFY THAT THE FORCE IS SMALL ENOUGH TO BE 
             TREATED AS ZERO. IF NOT, PLEASE USE THE SOLUTION CONTROLS TO RESET 
             THE CRITERION FOR ZERO FORCE.

 AVERAGE MOMENT                     1.586E-06   TIME AVG. MOMENT      1.197E-06
 LARGEST RESIDUAL MOMENT            3.294E-13   AT NODE        391   DOF  4
   INSTANCE: PART-1-1                                                                        
 LARGEST INCREMENT OF ROTATION     -1.251E-02   AT NODE        285   DOF  4
   INSTANCE: PART-1-1                                                                        
 LARGEST CORRECTION TO ROTATION    -4.241E-07   AT NODE        228   DOF  5
   INSTANCE: PART-1-1                                                                        
          THE MOMENT    EQUILIBRIUM EQUATIONS HAVE CONVERGED
          TIME INCREMENT MAY NOW INCREASE TO    1.485E-02

 ITERATION SUMMARY FOR THE INCREMENT:   4 TOTAL ITERATIONS, OF WHICH
   0 ARE SEVERE DISCONTINUITY ITERATIONS AND  4 ARE EQUILIBRIUM ITERATIONS.

 TIME INCREMENT COMPLETED  9.899E-03,  FRACTION OF STEP COMPLETED  4.965E-02
 STEP TIME COMPLETED       9.930E-02,  TOTAL TIME COMPLETED        9.930E-02


  INCREMENT     6 STARTS. ATTEMPT NUMBER  1, TIME INCREMENT  1.485E-02

  NUMBER OF EQUATIONS =      2415     NUMBER OF RHS =    1
  NUMBER OF FLOATING PT. OPERATIONS =  5.10E+06

     CHECK POINT   START OF SOLVER    

     CHECK POINT  END OF SOLVER       

       ELAPSED USER TIME (SEC)      =  1.00000E-02
       ELAPSED SYSTEM TIME (SEC)    =   0.0000    
       ELAPSED TOTAL CPU TIME (SEC) =  1.00000E-02
       ELAPSED WALLCLOCK TIME (SEC) =          0
 

 ***WARNING: THE SYSTEM MATRIX HAS 1 NEGATIVE EIGENVALUES.
             EXPLANATIONS ARE SUGGESTED AFTER THE FIRST OCCURRENCE OF THIS MESSAGE.

               CONVERGENCE CHECKS FOR EQUILIBRIUM ITERATION     1


 AVERAGE FORCE                      8.487E-05   TIME AVG. FORCE       8.487E-05
 LARGEST RESIDUAL FORCE            -6.271E-03   AT NODE        236   DOF  1
   INSTANCE: PART-1-1                                                                        
 LARGEST INCREMENT OF DISP.         -1.48       AT NODE        401   DOF  3
   INSTANCE: PART-1-1                                                                        
 LARGEST CORRECTION TO DISP.       -0.326       AT NODE        401   DOF  3
   INSTANCE: PART-1-1                                                                        
          FORCE     EQUILIBRIUM NOT ACHIEVED WITHIN TOLERANCE.

 AVERAGE MOMENT                     1.801E-05   TIME AVG. MOMENT      3.999E-06
 LARGEST RESIDUAL MOMENT           -3.037E-04   AT NODE        202   DOF  4
   INSTANCE: PART-1-1                                                                        
 LARGEST INCREMENT OF ROTATION     -2.958E-02   AT NODE        404   DOF  4
   INSTANCE: PART-1-1                                                                        
 LARGEST CORRECTION TO ROTATION    -1.878E-02   AT NODE        233   DOF  5
   INSTANCE: PART-1-1                                                                        
          MOMENT    EQUILIBRIUM NOT ACHIEVED WITHIN TOLERANCE.

  NUMBER OF EQUATIONS =      2415     NUMBER OF RHS =    1
  NUMBER OF FLOATING PT. OPERATIONS =  5.10E+06

     CHECK POINT   START OF SOLVER    

     CHECK POINT  END OF SOLVER       

       ELAPSED USER TIME (SEC)      =  1.00000E-02
       ELAPSED SYSTEM TIME (SEC)    =   0.0000    
       ELAPSED TOTAL CPU TIME (SEC) =  1.00000E-02
       ELAPSED WALLCLOCK TIME (SEC) =          0

               CONVERGENCE CHECKS FOR EQUILIBRIUM ITERATION     2


 AVERAGE FORCE                      5.399E-06   TIME AVG. FORCE       5.399E-06
 LARGEST RESIDUAL FORCE            -1.974E-05   AT NODE         44   DOF  1
   INSTANCE: PART-1-1                                                                        
 LARGEST INCREMENT OF DISP.         -1.47       AT NODE        401   DOF  3
   INSTANCE: PART-1-1                                                                        
 LARGEST CORRECTION TO DISP.        9.973E-03   AT NODE        401   DOF  3
   INSTANCE: PART-1-1                                                                        
          FORCE     EQUILIBRIUM NOT ACHIEVED WITHIN TOLERANCE.

 AVERAGE MOMENT                     2.873E-06   TIME AVG. MOMENT      1.476E-06
 LARGEST RESIDUAL MOMENT            8.335E-06   AT NODE        279   DOF  5
   INSTANCE: PART-1-1                                                                        
 LARGEST INCREMENT OF ROTATION     -2.919E-02   AT NODE        404   DOF  4
   INSTANCE: PART-1-1                                                                        
 LARGEST CORRECTION TO ROTATION     1.070E-03   AT NODE         44   DOF  5
   INSTANCE: PART-1-1                                                                        
          MOMENT    EQUILIBRIUM NOT ACHIEVED WITHIN TOLERANCE.

  NUMBER OF EQUATIONS =      2415     NUMBER OF RHS =    1
  NUMBER OF FLOATING PT. OPERATIONS =  5.10E+06

     CHECK POINT   START OF SOLVER    

     CHECK POINT  END OF SOLVER       

       ELAPSED USER TIME (SEC)      =   0.0000    
       ELAPSED SYSTEM TIME (SEC)    =   0.0000    
       ELAPSED TOTAL CPU TIME (SEC) =   0.0000    
       ELAPSED WALLCLOCK TIME (SEC) =          0

               CONVERGENCE CHECKS FOR EQUILIBRIUM ITERATION     3


 AVERAGE FORCE                      6.699E-05   TIME AVG. FORCE       6.699E-05
 LARGEST RESIDUAL FORCE            -6.086E-03   AT NODE        236   DOF  1
   INSTANCE: PART-1-1                                                                        
 LARGEST INCREMENT OF DISP.         -1.44       AT NODE        401   DOF  3
   INSTANCE: PART-1-1                                                                        
 LARGEST CORRECTION TO DISP.        2.771E-02   AT NODE          1   DOF  3
   INSTANCE: REFPOINT-0                                                                      
          FORCE     EQUILIBRIUM NOT ACHIEVED WITHIN TOLERANCE.

 AVERAGE MOMENT                     1.796E-05   TIME AVG. MOMENT      3.991E-06
 LARGEST RESIDUAL MOMENT           -4.847E-04   AT NODE        230   DOF  4
   INSTANCE: PART-1-1                                                                        
 LARGEST INCREMENT OF ROTATION     -2.645E-02   AT NODE        404   DOF  4
   INSTANCE: PART-1-1                                                                        
 LARGEST CORRECTION TO ROTATION     1.845E-02   AT NODE        233   DOF  5
   INSTANCE: PART-1-1                                                                        
          MOMENT    EQUILIBRIUM NOT ACHIEVED WITHIN TOLERANCE.

  NUMBER OF EQUATIONS =      2415     NUMBER OF RHS =    1
  NUMBER OF FLOATING PT. OPERATIONS =  5.10E+06

     CHECK POINT   START OF SOLVER    

     CHECK POINT  END OF SOLVER       

       ELAPSED USER TIME (SEC)      =   0.0000    
       ELAPSED SYSTEM TIME (SEC)    =   0.0000    
       ELAPSED TOTAL CPU TIME (SEC) =   0.0000    
       ELAPSED WALLCLOCK TIME (SEC) =          0

               CONVERGENCE CHECKS FOR EQUILIBRIUM ITERATION     4


 AVERAGE FORCE                      6.101E-07   TIME AVG. FORCE       6.101E-07
 LARGEST RESIDUAL FORCE            -1.291E-04   AT NODE          1   DOF  2
   INSTANCE: REFPOINT-0                                                                      
 LARGEST INCREMENT OF DISP.         -1.41       AT NODE        401   DOF  3
   INSTANCE: PART-1-1                                                                        
 LARGEST CORRECTION TO DISP.        3.170E-02   AT NODE        401   DOF  3
   INSTANCE: PART-1-1                                                                        
          FORCE     EQUILIBRIUM NOT ACHIEVED WITHIN TOLERANCE.

 AVERAGE MOMENT                     1.964E-06   TIME AVG. MOMENT      1.325E-06
 LARGEST RESIDUAL MOMENT            1.954E-06   AT NODE        335   DOF  5
   INSTANCE: PART-1-1                                                                        
 LARGEST INCREMENT OF ROTATION     -2.434E-02   AT NODE        404   DOF  4
   INSTANCE: PART-1-1                                                                        
 LARGEST CORRECTION TO ROTATION     2.148E-03   AT NODE        401   DOF  4
   INSTANCE: PART-1-1                                                                        
          MOMENT    EQUILIBRIUM NOT ACHIEVED WITHIN TOLERANCE.

  NUMBER OF EQUATIONS =      2415     NUMBER OF RHS =    1
  NUMBER OF FLOATING PT. OPERATIONS =  5.10E+06

     CHECK POINT   START OF SOLVER    

     CHECK POINT  END OF SOLVER       

       ELAPSED USER TIME (SEC)      =  1.00000E-02
       ELAPSED SYSTEM TIME (SEC)    =   0.0000    
       ELAPSED TOTAL CPU TIME (SEC) =  1.00000E-02
       ELAPSED WALLCLOCK TIME (SEC) =          0

               CONVERGENCE CHECKS FOR EQUILIBRIUM ITERATION     5


 AVERAGE FORCE                      9.968E-08   TIME AVG. FORCE       1.000E-02
 LARGEST RESIDUAL FORCE            -9.665E-06   AT NODE          1   DOF  2
   INSTANCE: REFPOINT-0                                                                      
 LARGEST INCREMENT OF DISP.         -1.40       AT NODE        401   DOF  3
   INSTANCE: PART-1-1                                                                        
 LARGEST CORRECTION TO DISP.        5.071E-03   AT NODE          1   DOF  3
   INSTANCE: REFPOINT-0                                                                      
          THE FORCE     IS ZERO EVERYWHERE BUT THE FORCE     RESIDUAL OR
          THE DISP.    CORRECTION IS NON-ZERO

 AVERAGE MOMENT                     1.936E-06   TIME AVG. MOMENT      1.320E-06
 LARGEST RESIDUAL MOMENT           -2.514E-07   AT NODE        154   DOF  4
   INSTANCE: PART-1-1                                                                        
 LARGEST INCREMENT OF ROTATION     -2.369E-02   AT NODE        401   DOF  4
   INSTANCE: PART-1-1                                                                        
 LARGEST CORRECTION TO ROTATION     6.465E-04   AT NODE        404   DOF  4
   INSTANCE: PART-1-1                                                                        
          MOMENT    EQUILIBRIUM NOT ACHIEVED WITHIN TOLERANCE.

  NUMBER OF EQUATIONS =      2415     NUMBER OF RHS =    1
  NUMBER OF FLOATING PT. OPERATIONS =  5.10E+06

     CHECK POINT   START OF SOLVER    

     CHECK POINT  END OF SOLVER       

       ELAPSED USER TIME (SEC)      =  1.00000E-02
       ELAPSED SYSTEM TIME (SEC)    =   0.0000    
       ELAPSED TOTAL CPU TIME (SEC) =  1.00000E-02
       ELAPSED WALLCLOCK TIME (SEC) =          0

               CONVERGENCE CHECKS FOR EQUILIBRIUM ITERATION     6


 AVERAGE FORCE                      4.866E-08   TIME AVG. FORCE       1.000E-02
 LARGEST RESIDUAL FORCE            -5.535E-06   AT NODE          1   DOF  2
   INSTANCE: REFPOINT-0                                                                      
 LARGEST INCREMENT OF DISP.         -1.40       AT NODE        401   DOF  3
   INSTANCE: PART-1-1                                                                        
 LARGEST CORRECTION TO DISP.        5.325E-03   AT NODE          1   DOF  3
   INSTANCE: REFPOINT-0                                                                      
          THE FORCE     IS ZERO EVERYWHERE BUT THE FORCE     RESIDUAL OR
          THE DISP.    CORRECTION IS NON-ZERO

 AVERAGE MOMENT                     1.947E-06   TIME AVG. MOMENT      1.322E-06
 LARGEST RESIDUAL MOMENT            7.543E-09   AT NODE        387   DOF  4
   INSTANCE: PART-1-1                                                                        
 LARGEST INCREMENT OF ROTATION     -2.325E-02   AT NODE        349   DOF  4
   INSTANCE: PART-1-1                                                                        
 LARGEST CORRECTION TO ROTATION     4.433E-04   AT NODE        401   DOF  4
   INSTANCE: PART-1-1                                                                        
          MOMENT    EQUILIBRIUM NOT ACHIEVED WITHIN TOLERANCE.

  NUMBER OF EQUATIONS =      2415     NUMBER OF RHS =    1
  NUMBER OF FLOATING PT. OPERATIONS =  5.10E+06

     CHECK POINT   START OF SOLVER    

     CHECK POINT  END OF SOLVER       

       ELAPSED USER TIME (SEC)      =   0.0000    
       ELAPSED SYSTEM TIME (SEC)    =   0.0000    
       ELAPSED TOTAL CPU TIME (SEC) =   0.0000    
       ELAPSED WALLCLOCK TIME (SEC) =          0

               CONVERGENCE CHECKS FOR EQUILIBRIUM ITERATION     7


 AVERAGE FORCE                      3.660E-08   TIME AVG. FORCE       1.000E-02
 LARGEST RESIDUAL FORCE            -1.236E-08   AT NODE          1   DOF  2
   INSTANCE: REFPOINT-0                                                                      
 LARGEST INCREMENT OF DISP.         -1.40       AT NODE        401   DOF  3
   INSTANCE: PART-1-1                                                                        
 LARGEST CORRECTION TO DISP.        2.403E-04   AT NODE        401   DOF  3
   INSTANCE: PART-1-1                                                                        
          THERE IS ZERO FORCE     EVERYWHERE
 

 ***WARNING: THERE IS ZERO FORCE EVERYWHERE IN THE MODEL BASED ON THE DEFAULT 
             CRITERION. PLEASE CHECK THE VALUE OF THE AVERAGE FORCE DURING THE 
             CURRENT ITERATION TO VERIFY THAT THE FORCE IS SMALL ENOUGH TO BE 
             TREATED AS ZERO. IF NOT, PLEASE USE THE SOLUTION CONTROLS TO RESET 
             THE CRITERION FOR ZERO FORCE.

 AVERAGE MOMENT                     1.961E-06   TIME AVG. MOMENT      1.324E-06
 LARGEST RESIDUAL MOMENT            2.395E-10   AT NODE        398   DOF  4
   INSTANCE: PART-1-1                                                                        
 LARGEST INCREMENT OF ROTATION     -2.324E-02   AT NODE        337   DOF  4
   INSTANCE: PART-1-1                                                                        
 LARGEST CORRECTION TO ROTATION     2.082E-05   AT NODE        404   DOF  4
   INSTANCE: PART-1-1                                                                        
          THE MOMENT    EQUILIBRIUM EQUATIONS HAVE CONVERGED

 ITERATION SUMMARY FOR THE INCREMENT:   7 TOTAL ITERATIONS, OF WHICH
   0 ARE SEVERE DISCONTINUITY ITERATIONS AND  7 ARE EQUILIBRIUM ITERATIONS.

 TIME INCREMENT COMPLETED  1.485E-02,  FRACTION OF STEP COMPLETED  5.707E-02
 STEP TIME COMPLETED       0.114    ,  TOTAL TIME COMPLETED        0.114    


  INCREMENT     7 STARTS. ATTEMPT NUMBER  1, TIME INCREMENT  1.485E-02

  NUMBER OF EQUATIONS =      2415     NUMBER OF RHS =    1
  NUMBER OF FLOATING PT. OPERATIONS =  5.10E+06

     CHECK POINT   START OF SOLVER    

     CHECK POINT  END OF SOLVER       

       ELAPSED USER TIME (SEC)      =  1.00000E-02
       ELAPSED SYSTEM TIME (SEC)    =   0.0000    
       ELAPSED TOTAL CPU TIME (SEC) =  1.00000E-02
       ELAPSED WALLCLOCK TIME (SEC) =          0
 

 ***WARNING: THE SYSTEM MATRIX HAS 1 NEGATIVE EIGENVALUES.
             EXPLANATIONS ARE SUGGESTED AFTER THE FIRST OCCURRENCE OF THIS MESSAGE.

               CONVERGENCE CHECKS FOR EQUILIBRIUM ITERATION     1


 AVERAGE FORCE                      1.940E-04   TIME AVG. FORCE       1.940E-04
 LARGEST RESIDUAL FORCE            -3.881E-02   AT NODE          1   DOF  2
   INSTANCE: REFPOINT-0                                                                      
 LARGEST INCREMENT OF DISP.         -2.20       AT NODE        401   DOF  3
   INSTANCE: PART-1-1                                                                        
 LARGEST CORRECTION TO DISP.       -0.803       AT NODE        401   DOF  3
   INSTANCE: PART-1-1                                                                        
          FORCE     EQUILIBRIUM NOT ACHIEVED WITHIN TOLERANCE.

 AVERAGE MOMENT                     3.112E-05   TIME AVG. MOMENT      5.581E-06
 LARGEST RESIDUAL MOMENT           -7.528E-04   AT NODE        326   DOF  4
   INSTANCE: PART-1-1                                                                        
 LARGEST INCREMENT OF ROTATION     -6.111E-02   AT NODE        404   DOF  4
   INSTANCE: PART-1-1                                                                        
 LARGEST CORRECTION TO ROTATION    -3.788E-02   AT NODE        404   DOF  4
   INSTANCE: PART-1-1                                                                        
          MOMENT    EQUILIBRIUM NOT ACHIEVED WITHIN TOLERANCE.

  NUMBER OF EQUATIONS =      2415     NUMBER OF RHS =    1
  NUMBER OF FLOATING PT. OPERATIONS =  5.10E+06

     CHECK POINT   START OF SOLVER    

     CHECK POINT  END OF SOLVER       

       ELAPSED USER TIME (SEC)      =   0.0000    
       ELAPSED SYSTEM TIME (SEC)    =   0.0000    
       ELAPSED TOTAL CPU TIME (SEC) =   0.0000    
       ELAPSED WALLCLOCK TIME (SEC) =          0

               CONVERGENCE CHECKS FOR EQUILIBRIUM ITERATION     2


 AVERAGE FORCE                      7.291E-06   TIME AVG. FORCE       7.291E-06
 LARGEST RESIDUAL FORCE            -1.228E-04   AT NODE         52   DOF  1
   INSTANCE: PART-1-1                                                                        
 LARGEST INCREMENT OF DISP.         -2.17       AT NODE        401   DOF  3
   INSTANCE: PART-1-1                                                                        
 LARGEST CORRECTION TO DISP.        2.943E-02   AT NODE        401   DOF  3
   INSTANCE: PART-1-1                                                                        
          FORCE     EQUILIBRIUM NOT ACHIEVED WITHIN TOLERANCE.

 AVERAGE MOMENT                     4.534E-06   TIME AVG. MOMENT      1.783E-06
 LARGEST RESIDUAL MOMENT            3.584E-05   AT NODE        186   DOF  5
   INSTANCE: PART-1-1                                                                        
 LARGEST INCREMENT OF ROTATION     -6.096E-02   AT NODE        404   DOF  4
   INSTANCE: PART-1-1                                                                        
 LARGEST CORRECTION TO ROTATION     2.651E-03   AT NODE         52   DOF  5
   INSTANCE: PART-1-1                                                                        
          MOMENT    EQUILIBRIUM NOT ACHIEVED WITHIN TOLERANCE.

  NUMBER OF EQUATIONS =      2415     NUMBER OF RHS =    1
  NUMBER OF FLOATING PT. OPERATIONS =  5.10E+06

     CHECK POINT   START OF SOLVER    

     CHECK POINT  END OF SOLVER       

       ELAPSED USER TIME (SEC)      =  1.00000E-02
       ELAPSED SYSTEM TIME (SEC)    =   0.0000    
       ELAPSED TOTAL CPU TIME (SEC) =  1.00000E-02
       ELAPSED WALLCLOCK TIME (SEC) =          0

               CONVERGENCE CHECKS FOR EQUILIBRIUM ITERATION     3


 AVERAGE FORCE                      1.708E-04   TIME AVG. FORCE       1.708E-04
 LARGEST RESIDUAL FORCE            -5.127E-02   AT NODE          1   DOF  2
   INSTANCE: REFPOINT-0                                                                      
 LARGEST INCREMENT OF DISP.         -1.54       AT NODE        401   DOF  3
   INSTANCE: PART-1-1                                                                        
 LARGEST CORRECTION TO DISP.        0.637       AT NODE        401   DOF  3
   INSTANCE: PART-1-1                                                                        
          FORCE     EQUILIBRIUM NOT ACHIEVED WITHIN TOLERANCE.

 AVERAGE MOMENT                     4.634E-05   TIME AVG. MOMENT      7.754E-06
 LARGEST RESIDUAL MOMENT           -3.264E-03   AT NODE        398   DOF  4
   INSTANCE: PART-1-1                                                                        
 LARGEST INCREMENT OF ROTATION     -2.813E-02   AT NODE        233   DOF  4
   INSTANCE: PART-1-1                                                                        
 LARGEST CORRECTION TO ROTATION     4.386E-02   AT NODE        401   DOF  4
   INSTANCE: PART-1-1                                                                        
          MOMENT    EQUILIBRIUM NOT ACHIEVED WITHIN TOLERANCE.

  NUMBER OF EQUATIONS =      2415     NUMBER OF RHS =    1
  NUMBER OF FLOATING PT. OPERATIONS =  5.10E+06

     CHECK POINT   START OF SOLVER    

     CHECK POINT  END OF SOLVER       

       ELAPSED USER TIME (SEC)      =   0.0000    
       ELAPSED SYSTEM TIME (SEC)    =   0.0000    
       ELAPSED TOTAL CPU TIME (SEC) =   0.0000    
       ELAPSED WALLCLOCK TIME (SEC) =          0

               CONVERGENCE CHECKS FOR EQUILIBRIUM ITERATION     4


 AVERAGE FORCE                      1.656E-06   TIME AVG. FORCE       1.656E-06
 LARGEST RESIDUAL FORCE            -7.326E-05   AT NODE        280   DOF  1
   INSTANCE: PART-1-1                                                                        
 LARGEST INCREMENT OF DISP.         -1.53       AT NODE        401   DOF  3
   INSTANCE: PART-1-1                                                                        
 LARGEST CORRECTION TO DISP.       -1.272E-02   AT NODE        401   DOF  2
   INSTANCE: PART-1-1                                                                        
          FORCE     EQUILIBRIUM NOT ACHIEVED WITHIN TOLERANCE.

 AVERAGE MOMENT                     2.987E-06   TIME AVG. MOMENT      1.562E-06
 LARGEST RESIDUAL MOMENT            1.753E-05   AT NODE        399   DOF  4
   INSTANCE: PART-1-1                                                                        
 LARGEST INCREMENT OF ROTATION     -2.788E-02   AT NODE        229   DOF  4
   INSTANCE: PART-1-1                                                                        
 LARGEST CORRECTION TO ROTATION     2.012E-03   AT NODE        280   DOF  5
   INSTANCE: PART-1-1                                                                        
          MOMENT    EQUILIBRIUM NOT ACHIEVED WITHIN TOLERANCE.

  NUMBER OF EQUATIONS =      2415     NUMBER OF RHS =    1
  NUMBER OF FLOATING PT. OPERATIONS =  5.10E+06

     CHECK POINT   START OF SOLVER    

     CHECK POINT  END OF SOLVER       

       ELAPSED USER TIME (SEC)      =  1.00000E-02
       ELAPSED SYSTEM TIME (SEC)    =   0.0000    
       ELAPSED TOTAL CPU TIME (SEC) =  1.00000E-02
       ELAPSED WALLCLOCK TIME (SEC) =          0

               CONVERGENCE CHECKS FOR EQUILIBRIUM ITERATION     5


 AVERAGE FORCE                      2.508E-05   TIME AVG. FORCE       2.508E-05
 LARGEST RESIDUAL FORCE            -9.502E-03   AT NODE          1   DOF  2
   INSTANCE: REFPOINT-0                                                                      
 LARGEST INCREMENT OF DISP.         -1.74       AT NODE        401   DOF  3
   INSTANCE: PART-1-1                                                                        
 LARGEST CORRECTION TO DISP.       -0.211       AT NODE        401   DOF  3
   INSTANCE: PART-1-1                                                                        
          FORCE     EQUILIBRIUM NOT ACHIEVED WITHIN TOLERANCE.

 AVERAGE MOMENT                     6.042E-06   TIME AVG. MOMENT      1.998E-06
 LARGEST RESIDUAL MOMENT            2.334E-04   AT NODE        398   DOF  4
   INSTANCE: PART-1-1                                                                        
 LARGEST INCREMENT OF ROTATION     -3.574E-02   AT NODE        404   DOF  4
   INSTANCE: PART-1-1                                                                        
 LARGEST CORRECTION TO ROTATION    -1.867E-02   AT NODE        401   DOF  4
   INSTANCE: PART-1-1                                                                        
          MOMENT    EQUILIBRIUM NOT ACHIEVED WITHIN TOLERANCE.

  NUMBER OF EQUATIONS =      2415     NUMBER OF RHS =    1
  NUMBER OF FLOATING PT. OPERATIONS =  5.10E+06

     CHECK POINT   START OF SOLVER    

     CHECK POINT  END OF SOLVER       

       ELAPSED USER TIME (SEC)      =  1.00000E-02
       ELAPSED SYSTEM TIME (SEC)    =   0.0000    
       ELAPSED TOTAL CPU TIME (SEC) =  1.00000E-02
       ELAPSED WALLCLOCK TIME (SEC) =          0

               CONVERGENCE CHECKS FOR EQUILIBRIUM ITERATION     6


 AVERAGE FORCE                      8.513E-07   TIME AVG. FORCE       8.513E-07
 LARGEST RESIDUAL FORCE            -1.623E-05   AT NODE        284   DOF  1
   INSTANCE: PART-1-1                                                                        
 LARGEST INCREMENT OF DISP.         -1.74       AT NODE        401   DOF  3
[...]


 AVERAGE FORCE                      3.438E-06   TIME AVG. FORCE       1.813E-06
 LARGEST RESIDUAL FORCE            -7.153E-07   AT NODE        260   DOF  1
   INSTANCE: PART-1-1                                                                        
 LARGEST INCREMENT OF DISP.         0.275       AT NODE        401   DOF  2
   INSTANCE: PART-1-1                                                                        
 LARGEST CORRECTION TO DISP.       -8.495E-04   AT NODE        357   DOF  1
   INSTANCE: PART-1-1                                                                        
          FORCE     EQUILIBRIUM NOT ACHIEVED WITHIN TOLERANCE.

 AVERAGE MOMENT                     2.346E-05   TIME AVG. MOMENT      1.691E-05
 LARGEST RESIDUAL MOMENT            1.484E-07   AT NODE        195   DOF  4
   INSTANCE: PART-1-1                                                                        
 LARGEST INCREMENT OF ROTATION      5.237E-03   AT NODE        404   DOF  4
   INSTANCE: PART-1-1                                                                        
 LARGEST CORRECTION TO ROTATION     1.985E-04   AT NODE        260   DOF  6
   INSTANCE: PART-1-1                                                                        
          MOMENT    EQUILIBRIUM NOT ACHIEVED WITHIN TOLERANCE.

  NUMBER OF EQUATIONS =      2415     NUMBER OF RHS =    1
  NUMBER OF FLOATING PT. OPERATIONS =  5.10E+06

     CHECK POINT   START OF SOLVER    

     CHECK POINT  END OF SOLVER       

       ELAPSED USER TIME (SEC)      =   0.0000    
       ELAPSED SYSTEM TIME (SEC)    =   0.0000    
       ELAPSED TOTAL CPU TIME (SEC) =   0.0000    
       ELAPSED WALLCLOCK TIME (SEC) =          0

               CONVERGENCE CHECKS FOR EQUILIBRIUM ITERATION     6


 AVERAGE FORCE                      3.518E-06   TIME AVG. FORCE       1.814E-06
 LARGEST RESIDUAL FORCE             1.215E-11   AT NODE        366   DOF  2
   INSTANCE: PART-1-1                                                                        
 LARGEST INCREMENT OF DISP.         0.275       AT NODE        401   DOF  2
   INSTANCE: PART-1-1                                                                        
 LARGEST CORRECTION TO DISP.       -1.439E-06   AT NODE        312   DOF  1
   INSTANCE: PART-1-1                                                                        
          THE FORCE     EQUILIBRIUM EQUATIONS HAVE CONVERGED

 AVERAGE MOMENT                     2.346E-05   TIME AVG. MOMENT      1.691E-05
 LARGEST RESIDUAL MOMENT           -5.852E-12   AT NODE         22   DOF  6
   INSTANCE: PART-1-1                                                                        
 LARGEST INCREMENT OF ROTATION      5.237E-03   AT NODE        404   DOF  4
   INSTANCE: PART-1-1                                                                        
 LARGEST CORRECTION TO ROTATION     3.013E-07   AT NODE        256   DOF  6
   INSTANCE: PART-1-1                                                                        
          THE MOMENT    EQUILIBRIUM EQUATIONS HAVE CONVERGED

 ITERATION SUMMARY FOR THE INCREMENT:   6 TOTAL ITERATIONS, OF WHICH
   0 ARE SEVERE DISCONTINUITY ITERATIONS AND  6 ARE EQUILIBRIUM ITERATIONS.

 TIME INCREMENT COMPLETED  0.117    ,  FRACTION OF STEP COMPLETED  0.790    
 STEP TIME COMPLETED        1.58    ,  TOTAL TIME COMPLETED         1.58    


  INCREMENT   155 STARTS. ATTEMPT NUMBER  1, TIME INCREMENT  0.117    

  NUMBER OF EQUATIONS =      2415     NUMBER OF RHS =    1
  NUMBER OF FLOATING PT. OPERATIONS =  5.10E+06

     CHECK POINT   START OF SOLVER    

     CHECK POINT  END OF SOLVER       

       ELAPSED USER TIME (SEC)      =   0.0000    
       ELAPSED SYSTEM TIME (SEC)    =   0.0000    
       ELAPSED TOTAL CPU TIME (SEC) =   0.0000    
       ELAPSED WALLCLOCK TIME (SEC) =          0

               CONVERGENCE CHECKS FOR EQUILIBRIUM ITERATION     1


 AVERAGE FORCE                      2.796E-05   TIME AVG. FORCE       2.002E-06
 LARGEST RESIDUAL FORCE             7.907E-04   AT NODE          1   DOF  3
   INSTANCE: REFPOINT-0                                                                      
 LARGEST INCREMENT OF DISP.        -2.331E-03   AT NODE        401   DOF  2
   INSTANCE: PART-1-1                                                                        
 LARGEST CORRECTION TO DISP.       -0.278       AT NODE        401   DOF  2
   INSTANCE: PART-1-1                                                                        
          FORCE     EQUILIBRIUM NOT ACHIEVED WITHIN TOLERANCE.

 AVERAGE MOMENT                     2.342E-05   TIME AVG. MOMENT      1.695E-05
 LARGEST RESIDUAL MOMENT           -1.140E-05   AT NODE        398   DOF  4
   INSTANCE: PART-1-1                                                                        
 LARGEST INCREMENT OF ROTATION     -1.605E-04   AT NODE        253   DOF  6
   INSTANCE: PART-1-1                                                                        
 LARGEST CORRECTION TO ROTATION    -5.277E-03   AT NODE        401   DOF  4
   INSTANCE: PART-1-1                                                                        
          MOMENT    EQUILIBRIUM NOT ACHIEVED WITHIN TOLERANCE.

  NUMBER OF EQUATIONS =      2415     NUMBER OF RHS =    1
  NUMBER OF FLOATING PT. OPERATIONS =  5.10E+06

     CHECK POINT   START OF SOLVER    

     CHECK POINT  END OF SOLVER       

       ELAPSED USER TIME (SEC)      =   0.0000    
       ELAPSED SYSTEM TIME (SEC)    =   0.0000    
       ELAPSED TOTAL CPU TIME (SEC) =   0.0000    
       ELAPSED WALLCLOCK TIME (SEC) =          0

               CONVERGENCE CHECKS FOR EQUILIBRIUM ITERATION     2


 AVERAGE FORCE                      3.399E-06   TIME AVG. FORCE       1.825E-06
 LARGEST RESIDUAL FORCE            -3.838E-07   AT NODE        260   DOF  1
   INSTANCE: PART-1-1                                                                        
 LARGEST INCREMENT OF DISP.        -2.581E-03   AT NODE        401   DOF  2
   INSTANCE: PART-1-1                                                                        
 LARGEST CORRECTION TO DISP.       -8.237E-04   AT NODE        401   DOF  1
   INSTANCE: PART-1-1                                                                        
          FORCE     EQUILIBRIUM NOT ACHIEVED WITHIN TOLERANCE.

 AVERAGE MOMENT                     2.341E-05   TIME AVG. MOMENT      1.695E-05
 LARGEST RESIDUAL MOMENT            1.080E-07   AT NODE        195   DOF  4
   INSTANCE: PART-1-1                                                                        
 LARGEST INCREMENT OF ROTATION     -4.936E-05   AT NODE        196   DOF  4
   INSTANCE: PART-1-1                                                                        
 LARGEST CORRECTION TO ROTATION     1.456E-04   AT NODE        257   DOF  6
   INSTANCE: PART-1-1                                                                        
          MOMENT    EQUILIBRIUM NOT ACHIEVED WITHIN TOLERANCE.

  NUMBER OF EQUATIONS =      2415     NUMBER OF RHS =    1
  NUMBER OF FLOATING PT. OPERATIONS =  5.10E+06

     CHECK POINT   START OF SOLVER    

     CHECK POINT  END OF SOLVER       

       ELAPSED USER TIME (SEC)      =  1.00000E-02
       ELAPSED SYSTEM TIME (SEC)    =   0.0000    
       ELAPSED TOTAL CPU TIME (SEC) =  1.00000E-02
       ELAPSED WALLCLOCK TIME (SEC) =          0

               CONVERGENCE CHECKS FOR EQUILIBRIUM ITERATION     3


 AVERAGE FORCE                      3.495E-06   TIME AVG. FORCE       1.826E-06
 LARGEST RESIDUAL FORCE             4.634E-08   AT NODE          1   DOF  3
   INSTANCE: REFPOINT-0                                                                      
 LARGEST INCREMENT OF DISP.        -3.789E-03   AT NODE        401   DOF  2
   INSTANCE: PART-1-1                                                                        
 LARGEST CORRECTION TO DISP.       -1.207E-03   AT NODE        401   DOF  2
   INSTANCE: PART-1-1                                                                        
          FORCE     EQUILIBRIUM NOT ACHIEVED WITHIN TOLERANCE.

 AVERAGE MOMENT                     2.347E-05   TIME AVG. MOMENT      1.695E-05
 LARGEST RESIDUAL MOMENT           -1.777E-09   AT NODE         74   DOF  4
   INSTANCE: PART-1-1                                                                        
 LARGEST INCREMENT OF ROTATION     -7.299E-05   AT NODE        401   DOF  4
   INSTANCE: PART-1-1                                                                        
 LARGEST CORRECTION TO ROTATION    -4.095E-05   AT NODE        404   DOF  4
   INSTANCE: PART-1-1                                                                        
 ESTIMATE OF ROTATION CORRECTION    6.736E-07
 MOMENT    EQUILIB. ACCEPTED BASED ON SMALL RESIDUAL AND ESTIMATED CORRECTION

  NUMBER OF EQUATIONS =      2415     NUMBER OF RHS =    1
  NUMBER OF FLOATING PT. OPERATIONS =  5.10E+06

     CHECK POINT   START OF SOLVER    

     CHECK POINT  END OF SOLVER       

       ELAPSED USER TIME (SEC)      =   0.0000    
       ELAPSED SYSTEM TIME (SEC)    =   0.0000    
       ELAPSED TOTAL CPU TIME (SEC) =   0.0000    
       ELAPSED WALLCLOCK TIME (SEC) =          0

               CONVERGENCE CHECKS FOR EQUILIBRIUM ITERATION     4


 AVERAGE FORCE                      3.518E-06   TIME AVG. FORCE       1.826E-06
 LARGEST RESIDUAL FORCE             1.113E-11   AT NODE        370   DOF  2
   INSTANCE: PART-1-1                                                                        
 LARGEST INCREMENT OF DISP.        -3.789E-03   AT NODE        401   DOF  2
   INSTANCE: PART-1-1                                                                        
 LARGEST CORRECTION TO DISP.       -1.374E-06   AT NODE        360   DOF  1
   INSTANCE: PART-1-1                                                                        
          THE FORCE     EQUILIBRIUM EQUATIONS HAVE CONVERGED

 AVERAGE MOMENT                     2.347E-05   TIME AVG. MOMENT      1.695E-05
 LARGEST RESIDUAL MOMENT           -5.000E-12   AT NODE         22   DOF  6
   INSTANCE: PART-1-1                                                                        
 LARGEST INCREMENT OF ROTATION     -7.296E-05   AT NODE        404   DOF  4
   INSTANCE: PART-1-1                                                                        
 LARGEST CORRECTION TO ROTATION     3.115E-07   AT NODE        256   DOF  6
   INSTANCE: PART-1-1                                                                        
          THE MOMENT    EQUILIBRIUM EQUATIONS HAVE CONVERGED

 ITERATION SUMMARY FOR THE INCREMENT:   4 TOTAL ITERATIONS, OF WHICH
   0 ARE SEVERE DISCONTINUITY ITERATIONS AND  4 ARE EQUILIBRIUM ITERATIONS.

 TIME INCREMENT COMPLETED  0.117    ,  FRACTION OF STEP COMPLETED  0.848    
 STEP TIME COMPLETED        1.70    ,  TOTAL TIME COMPLETED         1.70    


  INCREMENT   156 STARTS. ATTEMPT NUMBER  1, TIME INCREMENT  0.117    

  NUMBER OF EQUATIONS =      2415     NUMBER OF RHS =    1
  NUMBER OF FLOATING PT. OPERATIONS =  5.10E+06

     CHECK POINT   START OF SOLVER    

     CHECK POINT  END OF SOLVER       

       ELAPSED USER TIME (SEC)      =  1.00000E-02
       ELAPSED SYSTEM TIME (SEC)    =   0.0000    
       ELAPSED TOTAL CPU TIME (SEC) =  1.00000E-02
       ELAPSED WALLCLOCK TIME (SEC) =          0

               CONVERGENCE CHECKS FOR EQUILIBRIUM ITERATION     1


 AVERAGE FORCE                      4.381E-06   TIME AVG. FORCE       1.844E-06
 LARGEST RESIDUAL FORCE             3.120E-05   AT NODE          1   DOF  3
   INSTANCE: REFPOINT-0                                                                      
 LARGEST INCREMENT OF DISP.        -5.910E-02   AT NODE        401   DOF  2
   INSTANCE: PART-1-1                                                                        
 LARGEST CORRECTION TO DISP.       -5.531E-02   AT NODE        401   DOF  2
   INSTANCE: PART-1-1                                                                        
          FORCE     EQUILIBRIUM NOT ACHIEVED WITHIN TOLERANCE.

 AVERAGE MOMENT                     2.360E-05   TIME AVG. MOMENT      1.699E-05
 LARGEST RESIDUAL MOMENT            4.771E-08   AT NODE        335   DOF  4
   INSTANCE: PART-1-1                                                                        
 LARGEST INCREMENT OF ROTATION     -1.125E-03   AT NODE        404   DOF  4
   INSTANCE: PART-1-1                                                                        
 LARGEST CORRECTION TO ROTATION    -1.052E-03   AT NODE        404   DOF  4
   INSTANCE: PART-1-1                                                                        
          ROTATION CORRECTION TOO LARGE COMPARED TO ROTATION INCREMENT

  NUMBER OF EQUATIONS =      2415     NUMBER OF RHS =    1
  NUMBER OF FLOATING PT. OPERATIONS =  5.10E+06

     CHECK POINT   START OF SOLVER    

     CHECK POINT  END OF SOLVER       

       ELAPSED USER TIME (SEC)      =  1.00000E-02
       ELAPSED SYSTEM TIME (SEC)    =   0.0000    
       ELAPSED TOTAL CPU TIME (SEC) =  1.00000E-02
       ELAPSED WALLCLOCK TIME (SEC) =          0

               CONVERGENCE CHECKS FOR EQUILIBRIUM ITERATION     2


 AVERAGE FORCE                      3.521E-06   TIME AVG. FORCE       1.838E-06
 LARGEST RESIDUAL FORCE            -2.784E-11   AT NODE          1   DOF  3
   INSTANCE: REFPOINT-0                                                                      
 LARGEST INCREMENT OF DISP.        -5.911E-02   AT NODE        401   DOF  2
   INSTANCE: PART-1-1                                                                        
 LARGEST CORRECTION TO DISP.        2.595E-05   AT NODE        401   DOF  3
   INSTANCE: PART-1-1                                                                        
          THE FORCE     EQUILIBRIUM EQUATIONS HAVE CONVERGED

 AVERAGE MOMENT                     2.349E-05   TIME AVG. MOMENT      1.699E-05
 LARGEST RESIDUAL MOMENT           -9.240E-12   AT NODE        132   DOF  6
   INSTANCE: PART-1-1                                                                        
 LARGEST INCREMENT OF ROTATION     -1.125E-03   AT NODE        404   DOF  4
   INSTANCE: PART-1-1                                                                        
 LARGEST CORRECTION TO ROTATION     5.469E-08   AT NODE        296   DOF  4
   INSTANCE: PART-1-1                                                                        
          THE MOMENT    EQUILIBRIUM EQUATIONS HAVE CONVERGED
          TIME INCREMENT MAY NOW INCREASE TO    0.186    

 ITERATION SUMMARY FOR THE INCREMENT:   2 TOTAL ITERATIONS, OF WHICH
   0 ARE SEVERE DISCONTINUITY ITERATIONS AND  2 ARE EQUILIBRIUM ITERATIONS.

 TIME INCREMENT COMPLETED  0.117    ,  FRACTION OF STEP COMPLETED  0.907    
 STEP TIME COMPLETED        1.81    ,  TOTAL TIME COMPLETED         1.81    


  INCREMENT   157 STARTS. ATTEMPT NUMBER  1, TIME INCREMENT  0.186    

  NUMBER OF EQUATIONS =      2415     NUMBER OF RHS =    1
  NUMBER OF FLOATING PT. OPERATIONS =  5.10E+06

     CHECK POINT   START OF SOLVER    

     CHECK POINT  END OF SOLVER       

       ELAPSED USER TIME (SEC)      =  1.00000E-02
       ELAPSED SYSTEM TIME (SEC)    =   0.0000    
       ELAPSED TOTAL CPU TIME (SEC) =  1.00000E-02
       ELAPSED WALLCLOCK TIME (SEC) =          0

               CONVERGENCE CHECKS FOR EQUILIBRIUM ITERATION     1


 AVERAGE FORCE                      4.917E-06   TIME AVG. FORCE       1.860E-06
 LARGEST RESIDUAL FORCE             4.853E-05   AT NODE          1   DOF  3
   INSTANCE: REFPOINT-0                                                                      
 LARGEST INCREMENT OF DISP.        -2.494E-02   AT NODE        401   DOF  2
   INSTANCE: PART-1-1                                                                        
 LARGEST CORRECTION TO DISP.        6.904E-02   AT NODE        401   DOF  2
   INSTANCE: PART-1-1                                                                        
          FORCE     EQUILIBRIUM NOT ACHIEVED WITHIN TOLERANCE.

 AVERAGE MOMENT                     2.362E-05   TIME AVG. MOMENT      1.703E-05
 LARGEST RESIDUAL MOMENT            3.183E-07   AT NODE        374   DOF  4
   INSTANCE: PART-1-1                                                                        
 LARGEST INCREMENT OF ROTATION     -4.747E-04   AT NODE        401   DOF  4
   INSTANCE: PART-1-1                                                                        
 LARGEST CORRECTION TO ROTATION     1.314E-03   AT NODE        404   DOF  4
   INSTANCE: PART-1-1                                                                        
          MOMENT    EQUILIBRIUM NOT ACHIEVED WITHIN TOLERANCE.

  NUMBER OF EQUATIONS =      2415     NUMBER OF RHS =    1
  NUMBER OF FLOATING PT. OPERATIONS =  5.10E+06

     CHECK POINT   START OF SOLVER    

     CHECK POINT  END OF SOLVER       

       ELAPSED USER TIME (SEC)      =  1.00000E-02
       ELAPSED SYSTEM TIME (SEC)    =   0.0000    
       ELAPSED TOTAL CPU TIME (SEC) =  1.00000E-02
       ELAPSED WALLCLOCK TIME (SEC) =          0

               CONVERGENCE CHECKS FOR EQUILIBRIUM ITERATION     2


 AVERAGE FORCE                      3.522E-06   TIME AVG. FORCE       1.850E-06
 LARGEST RESIDUAL FORCE            -6.587E-11   AT NODE          1   DOF  3
   INSTANCE: REFPOINT-0                                                                      
 LARGEST INCREMENT OF DISP.        -2.495E-02   AT NODE        401   DOF  2
   INSTANCE: PART-1-1                                                                        
 LARGEST CORRECTION TO DISP.        3.749E-05   AT NODE          1   DOF  3
   INSTANCE: REFPOINT-0                                                                      
          THE FORCE     EQUILIBRIUM EQUATIONS HAVE CONVERGED

 AVERAGE MOMENT                     2.350E-05   TIME AVG. MOMENT      1.703E-05
 LARGEST RESIDUAL MOMENT           -2.839E-11   AT NODE         18   DOF  6
   INSTANCE: PART-1-1                                                                        
 LARGEST INCREMENT OF ROTATION     -4.745E-04   AT NODE        404   DOF  4
   INSTANCE: PART-1-1                                                                        
 LARGEST CORRECTION TO ROTATION     1.329E-06   AT NODE        253   DOF  6
   INSTANCE: PART-1-1                                                                        
          THE MOMENT    EQUILIBRIUM EQUATIONS HAVE CONVERGED

 ITERATION SUMMARY FOR THE INCREMENT:   2 TOTAL ITERATIONS, OF WHICH
   0 ARE SEVERE DISCONTINUITY ITERATIONS AND  2 ARE EQUILIBRIUM ITERATIONS.

 TIME INCREMENT COMPLETED  0.186    ,  FRACTION OF STEP COMPLETED   1.00    
 STEP TIME COMPLETED        2.00    ,  TOTAL TIME COMPLETED         2.00    


          THE ANALYSIS HAS BEEN COMPLETED



     ANALYSIS SUMMARY:
     TOTAL OF        157  INCREMENTS
                      17  CUTBACKS IN AUTOMATIC INCREMENTATION
                     850  ITERATIONS INCLUDING CONTACT ITERATIONS IF PRESENT
                     850  PASSES THROUGH THE EQUATION SOLVER OF WHICH 
                     850  INVOLVE MATRIX DECOMPOSITION, INCLUDING
                       0  DECOMPOSITION(S) OF THE MASS MATRIX
                       1  REORDERING OF EQUATIONS TO MINIMIZE WAVEFRONT
                       0  ADDITIONAL RESIDUAL EVALUATIONS FOR LINE SEARCHES
                       0  ADDITIONAL OPERATOR EVALUATIONS FOR LINE SEARCHES
                       2  WARNING MESSAGES DURING USER INPUT PROCESSING
                      76  WARNING MESSAGES DURING ANALYSIS
                       0  ANALYSIS WARNINGS ARE NUMERICAL PROBLEM MESSAGES
                      62  ANALYSIS WARNINGS ARE NEGATIVE EIGENVALUE MESSAGES
                       0  ERROR MESSAGES



     JOB TIME SUMMARY
       USER TIME (SEC)      =   40.140    
       SYSTEM TIME (SEC)    =   1.7900    
       TOTAL CPU TIME (SEC) =   41.930    
       WALLCLOCK TIME (SEC) =         48
