1

   Abaqus 2021                                  Date 14-Feb-2023   Time 14:21:07
   For use by HARVARD COLLEGE PRESIDENT AND FELLOWS OF under license from Dassault Systemes or its subsidiary.

                                                                                 
                                                                                 
 STEP    1     INCREMENT     1     STEP TIME    0.00    


                        S T E P       1     D Y N A M I C   A N A L Y S I S - I M P L I C I T  I N T E G R A T I O N


                                                                                          

          DYNAMIC APPLICATION PACKED SCHEME IS                 QUASI-STATIC        
          BACKWARD EULER (BWE) TIME INTEGRATOR IS USED

     AUTOMATIC TIME CONTROL WITH -
          A SUGGESTED INITIAL TIME INCREMENT OF                0.100    
          AND A TOTAL TIME PERIOD OF                            2.00    
          THE MINIMUM TIME INCREMENT ALLOWED IS                5.000E-12
          THE MAXIMUM TIME INCREMENT ALLOWED IS                 2.00    

          THE HALF-INCREMENT RESIDUALS WILL NOT BE CALCULATED

          INITIAL ACCELERATIONS WILL NOT BE CALCULATED
          AGGRESSIVE   TIME INCREMENTATION IS USED
          STEP AMPLITUDE IS                                    RAMP

 CONVERGENCE TOLERANCE PARAMETERS FOR FORCE    
     CRITERION FOR RESIDUAL FORCE     FOR A NONLINEAR PROBLEM          5.000E-03
     CRITERION FOR DISP.    CORRECTION IN A NONLINEAR PROBLEM          1.000E-02
     INITIAL VALUE OF TIME AVERAGE FORCE                               1.000E-02
     AVERAGE FORCE     IS TIME AVERAGE FORCE    
     ALTERNATE CRIT. FOR RESIDUAL FORCE     FOR A NONLINEAR PROBLEM    2.000E-02
     CRITERION FOR ZERO FORCE     RELATIVE TO TIME AVRG. FORCE         1.000E-05
     CRITERION FOR RESIDUAL FORCE     WHEN THERE IS ZERO FLUX          1.000E-05
     CRITERION FOR DISP.    CORRECTION WHEN THERE IS ZERO FLUX         1.000E-03
     CRITERION FOR RESIDUAL FORCE     FOR A LINEAR INCREMENT           1.000E-08
     FIELD CONVERSION RATIO                                             1.00    
     CRITERION FOR ZERO FORCE     REL. TO TIME AVRG. MAX. FORCE        1.000E-05
     CRITERION FOR ZERO DISP.    RELATIVE TO CHARACTERISTIC LENGTH     1.000E-08

 CONVERGENCE TOLERANCE PARAMETERS FOR MOMENT   
     CRITERION FOR RESIDUAL MOMENT    FOR A NONLINEAR PROBLEM          5.000E-03
     CRITERION FOR ROTATION CORRECTION IN A NONLINEAR PROBLEM          1.000E-02
     INITIAL VALUE OF TIME AVERAGE MOMENT                              1.000E-02
     AVERAGE MOMENT    IS TIME AVERAGE MOMENT   
     ALTERNATE CRIT. FOR RESIDUAL MOMENT    FOR A NONLINEAR PROBLEM    2.000E-02
     CRITERION FOR ZERO MOMENT    RELATIVE TO TIME AVRG. MOMENT        1.000E-05
     CRITERION FOR RESIDUAL MOMENT    WHEN THERE IS ZERO FLUX          1.000E-05
     CRITERION FOR ROTATION CORRECTION WHEN THERE IS ZERO FLUX         1.000E-03
     CRITERION FOR RESIDUAL MOMENT    FOR A LINEAR INCREMENT           1.000E-08
     FIELD CONVERSION RATIO                                             1.00    
     CRITERION FOR ZERO MOMENT    REL. TO TIME AVRG. MAX. MOMENT       1.000E-05

     VOLUMETRIC STRAIN COMPATIBILITY TOLERANCE FOR HYBRID SOLIDS       1.000E-05
     AXIAL STRAIN COMPATIBILITY TOLERANCE FOR HYBRID BEAMS             1.000E-05
     TRANS. SHEAR STRAIN COMPATIBILITY TOLERANCE FOR HYBRID BEAMS      1.000E-05
     SOFT CONTACT CONSTRAINT COMPATIBILITY TOLERANCE FOR P>P0          5.000E-03
     SOFT CONTACT CONSTRAINT COMPATIBILITY TOLERANCE FOR P=0.0         0.100    
     CONTACT FORCE ERROR TOLERANCE FOR CONVERT SDI=YES                 1.00    
     DISPLACEMENT COMPATIBILITY TOLERANCE FOR DCOUP ELEMENTS           1.000E-05
     ROTATION COMPATIBILITY TOLERANCE FOR DCOUP ELEMENTS               1.000E-05

 EQUILIBRIUM WILL BE CHECKED FOR SEVERE DISCONTINUITY ITERATIONS

 TIME INCREMENTATION CONTROL PARAMETERS:
     FIRST EQUILIBRIUM ITERATION FOR CONSECUTIVE DIVERGENCE CHECK              4
     EQUILIBRIUM ITERATION AT WHICH LOG. CONVERGENCE RATE CHECK BEGINS         8
     EQUILIBRIUM ITERATION AFTER WHICH ALTERNATE RESIDUAL IS USED              9
     MAXIMUM EQUILIBRIUM ITERATIONS ALLOWED                                   16
     EQUILIBRIUM ITERATION COUNT FOR CUT-BACK IN NEXT INCREMENT               10
     MAXIMUM EQUILIB. ITERS IN TWO INCREMENTS FOR TIME INCREMENT INCREASE      4
     MAXIMUM ITERATIONS FOR SEVERE DISCONTINUITIES                            50
 *** MAXIMUM ATTEMPTS ALLOWED IN AN INCREMENT                                 25
     MAXIMUM DISCON. ITERS IN TWO INCREMENTS FOR TIME INCREMENT INCREASE      50
     MAXIMUM CONTACT AUGMENTATIONS FOR *SURFACE BEHAVIOR,AUGMENTED LAGRANGE   50
     CUT-BACK FACTOR AFTER DIVERGENCE                                 0.2500    
     CUT-BACK FACTOR FOR TOO SLOW CONVERGENCE                         0.5000    
     CUT-BACK FACTOR AFTER TOO MANY EQUILIBRIUM ITERATIONS            0.7500    
     CUT-BACK FACTOR AFTER TOO MANY SEVERE DISCONTINUITY ITERATIONS   0.2500    
     CUT-BACK FACTOR AFTER PROBLEMS IN ELEMENT ASSEMBLY               0.2500    
     INCREASE FACTOR AFTER TWO INCREMENTS THAT CONVERGE QUICKLY        1.500    
     MAX. TIME INCREMENT INCREASE FACTOR ALLOWED                       1.500    
     MAX. TIME INCREMENT INCREASE FACTOR ALLOWED (DYNAMICS)            1.250    
     MAX. TIME INCREMENT INCREASE FACTOR ALLOWED (DIFFUSION)           2.000    
     MINIMUM TIME INCREMENT RATIO FOR EXTRAPOLATION TO OCCUR          0.1000    
     MAX. RATIO OF TIME INCREMENT TO STABILITY LIMIT                   1.000    
     FRACTION OF STABILITY LIMIT FOR NEW TIME INCREMENT               0.9500    
     TIME INCREMENT INCREASE FACTOR BEFORE A TIME POINT                1.000    

 *** INDICATES USE OF NON-DEFAULT TIME INCREMENTATION CONTROL PARAMETER
     SELECTED WITH *CONTROLS
     GLOBAL STABILIZATION CONTROL IS NOT USED

          PRINT OF INCREMENT NUMBER, TIME, ETC., EVERY    1  INCREMENTS

     THE MAXIMUM NUMBER OF INCREMENTS IN THIS STEP IS                     500

          LARGE DISPLACEMENT THEORY WILL BE USED

     LINEAR EXTRAPOLATION WILL BE USED

     CHARACTERISTIC ELEMENT LENGTH     0.854    

     DETAILS REGARDING ACTUAL SOLUTION WAVEFRONT REQUESTED

     DETAILED OUTPUT OF DIAGNOSTICS TO DATABASE REQUESTED

     PRINT OF INCREMENT NUMBER, TIME, ETC., TO THE MESSAGE FILE EVERY     1  INCREMENTS
          THE INITIAL TIME INCREMENT WAS REDUCED TO   7.400E-02 TO MEET THE NEXT OUTPUT TIME POINT

     COLLECTING MODEL CONSTRAINT INFORMATION FOR OVERCONSTRAINT CHECKS

     COLLECTING STEP CONSTRAINT INFORMATION FOR OVERCONSTRAINT CHECKS


  INCREMENT     1 STARTS. ATTEMPT NUMBER  1, TIME INCREMENT  7.400E-02

  NUMBER OF EQUATIONS =      2415     NUMBER OF RHS =    1
  NUMBER OF FLOATING PT. OPERATIONS =  5.10E+06

     CHECK POINT   START OF SOLVER    

     CHECK POINT  END OF SOLVER       

       ELAPSED USER TIME (SEC)      =  1.00000E-02
       ELAPSED SYSTEM TIME (SEC)    =  1.00000E-02
       ELAPSED TOTAL CPU TIME (SEC) =  2.00000E-02
       ELAPSED WALLCLOCK TIME (SEC) =          0

               CONVERGENCE CHECKS FOR EQUILIBRIUM ITERATION     1


 AVERAGE FORCE                      1.927E-03   TIME AVG. FORCE       1.927E-03
 LARGEST RESIDUAL FORCE            -0.181       AT NODE          1   DOF  2
   INSTANCE: REFPOINT-0                                                                      
 LARGEST INCREMENT OF DISP.         -3.46       AT NODE        401   DOF  3
   INSTANCE: PART-1-1                                                                        
 LARGEST CORRECTION TO DISP.        -3.46       AT NODE        401   DOF  3
   INSTANCE: PART-1-1                                                                        
          FORCE     EQUILIBRIUM NOT ACHIEVED WITHIN TOLERANCE.

 AVERAGE MOMENT                     2.167E-04   TIME AVG. MOMENT      2.167E-04
 LARGEST RESIDUAL MOMENT            7.827E-03   AT NODE        398   DOF  4
   INSTANCE: PART-1-1                                                                        
 LARGEST INCREMENT OF ROTATION     -5.819E-02   AT NODE        401   DOF  4
   INSTANCE: PART-1-1                                                                        
 LARGEST CORRECTION TO ROTATION    -5.819E-02   AT NODE        401   DOF  4
   INSTANCE: PART-1-1                                                                        
          MOMENT    EQUILIBRIUM NOT ACHIEVED WITHIN TOLERANCE.

  NUMBER OF EQUATIONS =      2415     NUMBER OF RHS =    1
  NUMBER OF FLOATING PT. OPERATIONS =  5.10E+06

     CHECK POINT   START OF SOLVER    

     CHECK POINT  END OF SOLVER       

       ELAPSED USER TIME (SEC)      =  1.00000E-02
       ELAPSED SYSTEM TIME (SEC)    =   0.0000    
       ELAPSED TOTAL CPU TIME (SEC) =  1.00000E-02
       ELAPSED WALLCLOCK TIME (SEC) =          0
 

 ***WARNING: THE SYSTEM MATRIX HAS 2 NEGATIVE EIGENVALUES.

     NEGATIVE EIGENVALUES MEAN THAT THE SYSTEM MATRIX IS NOT 
     POSITIVE DEFINITE:
     FOR EXAMPLE, A BIFURCATION (BUCKLING) LOAD MAY HAVE BEEN EXCEEDED.

               CONVERGENCE CHECKS FOR EQUILIBRIUM ITERATION     2


 AVERAGE FORCE                      4.572E-06   TIME AVG. FORCE       4.572E-06
 LARGEST RESIDUAL FORCE             4.667E-04   AT NODE          1   DOF  2
   INSTANCE: REFPOINT-0                                                                      
 LARGEST INCREMENT OF DISP.         -3.47       AT NODE        401   DOF  3
   INSTANCE: PART-1-1                                                                        
 LARGEST CORRECTION TO DISP.       -9.001E-02   AT NODE        401   DOF  2
   INSTANCE: PART-1-1                                                                        
          FORCE     EQUILIBRIUM NOT ACHIEVED WITHIN TOLERANCE.

 AVERAGE MOMENT                     1.700E-06   TIME AVG. MOMENT      1.700E-06
 LARGEST RESIDUAL MOMENT            4.163E-05   AT NODE        399   DOF  5
   INSTANCE: PART-1-1                                                                        
 LARGEST INCREMENT OF ROTATION     -5.847E-02   AT NODE        404   DOF  4
   INSTANCE: PART-1-1                                                                        
 LARGEST CORRECTION TO ROTATION    -2.853E-04   AT NODE        404   DOF  4
   INSTANCE: PART-1-1                                                                        
          MOMENT    EQUILIBRIUM NOT ACHIEVED WITHIN TOLERANCE.

  NUMBER OF EQUATIONS =      2415     NUMBER OF RHS =    1
  NUMBER OF FLOATING PT. OPERATIONS =  5.10E+06

     CHECK POINT   START OF SOLVER    

     CHECK POINT  END OF SOLVER       

       ELAPSED USER TIME (SEC)      =  1.00000E-02
       ELAPSED SYSTEM TIME (SEC)    =   0.0000    
       ELAPSED TOTAL CPU TIME (SEC) =  1.00000E-02
       ELAPSED WALLCLOCK TIME (SEC) =          0
 

 ***WARNING: THE SYSTEM MATRIX HAS 2 NEGATIVE EIGENVALUES.
             EXPLANATIONS ARE SUGGESTED AFTER THE FIRST OCCURRENCE OF THIS MESSAGE.

               CONVERGENCE CHECKS FOR EQUILIBRIUM ITERATION     3


 AVERAGE FORCE                      3.332E-08   TIME AVG. FORCE       1.172E-02
                                                (FROM MOMENT    FIELD)
 LARGEST RESIDUAL FORCE            -6.686E-07   AT NODE        292   DOF  1
   INSTANCE: PART-1-1                                                                        
 LARGEST INCREMENT OF DISP.         -3.48       AT NODE        401   DOF  3
   INSTANCE: PART-1-1                                                                        
 LARGEST CORRECTION TO DISP.       -5.447E-03   AT NODE        321   DOF  3
   INSTANCE: PART-1-1                                                                        
          THE FORCE     IS ZERO EVERYWHERE BUT THE FORCE     RESIDUAL OR
          THE DISP.    CORRECTION IS NON-ZERO

 AVERAGE MOMENT                     8.797E-07   TIME AVG. MOMENT      8.797E-07
 LARGEST RESIDUAL MOMENT            1.278E-07   AT NODE        218   DOF  4
   INSTANCE: PART-1-1                                                                        
 LARGEST INCREMENT OF ROTATION     -5.835E-02   AT NODE        356   DOF  4
   INSTANCE: PART-1-1                                                                        
 LARGEST CORRECTION TO ROTATION    -2.680E-04   AT NODE        292   DOF  5
   INSTANCE: PART-1-1                                                                        
          MOMENT    EQUILIBRIUM NOT ACHIEVED WITHIN TOLERANCE.

  NUMBER OF EQUATIONS =      2415     NUMBER OF RHS =    1
  NUMBER OF FLOATING PT. OPERATIONS =  5.10E+06

     CHECK POINT   START OF SOLVER    

     CHECK POINT  END OF SOLVER       

       ELAPSED USER TIME (SEC)      =   0.0000    
       ELAPSED SYSTEM TIME (SEC)    =   0.0000    
       ELAPSED TOTAL CPU TIME (SEC) =   0.0000    
       ELAPSED WALLCLOCK TIME (SEC) =          0

               CONVERGENCE CHECKS FOR EQUILIBRIUM ITERATION     4


 AVERAGE FORCE                      7.753E-08   TIME AVG. FORCE       1.172E-02
                                                (FROM MOMENT    FIELD)
 LARGEST RESIDUAL FORCE            -2.058E-06   AT NODE          1   DOF  2
   INSTANCE: REFPOINT-0                                                                      
 LARGEST INCREMENT OF DISP.         -3.46       AT NODE        401   DOF  3
   INSTANCE: PART-1-1                                                                        
 LARGEST CORRECTION TO DISP.        1.850E-02   AT NODE        401   DOF  3
   INSTANCE: PART-1-1                                                                        
          THE FORCE     IS ZERO EVERYWHERE BUT THE FORCE     RESIDUAL OR
          THE DISP.    CORRECTION IS NON-ZERO

 AVERAGE MOMENT                     8.765E-07   TIME AVG. MOMENT      8.765E-07
 LARGEST RESIDUAL MOMENT           -2.547E-09   AT NODE        179   DOF  5
   INSTANCE: PART-1-1                                                                        
 LARGEST INCREMENT OF ROTATION     -5.813E-02   AT NODE        401   DOF  4
   INSTANCE: PART-1-1                                                                        
 LARGEST CORRECTION TO ROTATION     4.057E-04   AT NODE        237   DOF  4
   INSTANCE: PART-1-1                                                                        
          THE MOMENT    EQUILIBRIUM EQUATIONS HAVE CONVERGED

  NUMBER OF EQUATIONS =      2415     NUMBER OF RHS =    1
  NUMBER OF FLOATING PT. OPERATIONS =  5.10E+06

     CHECK POINT   START OF SOLVER    

     CHECK POINT  END OF SOLVER       

       ELAPSED USER TIME (SEC)      =   0.0000    
       ELAPSED SYSTEM TIME (SEC)    =  1.00000E-02
       ELAPSED TOTAL CPU TIME (SEC) =  1.00000E-02
       ELAPSED WALLCLOCK TIME (SEC) =          0

               CONVERGENCE CHECKS FOR EQUILIBRIUM ITERATION     5


 AVERAGE FORCE                      2.177E-08   TIME AVG. FORCE       1.172E-02
                                                (FROM MOMENT    FIELD)
 LARGEST RESIDUAL FORCE            -7.589E-10   AT NODE          1   DOF  2
   INSTANCE: REFPOINT-0                                                                      
 LARGEST INCREMENT OF DISP.         -3.46       AT NODE        401   DOF  3
   INSTANCE: PART-1-1                                                                        
 LARGEST CORRECTION TO DISP.        1.965E-04   AT NODE        401   DOF  3
   INSTANCE: PART-1-1                                                                        
          THERE IS ZERO FORCE     EVERYWHERE

 AVERAGE MOMENT                     8.765E-07   TIME AVG. MOMENT      8.765E-07
 LARGEST RESIDUAL MOMENT            3.632E-11   AT NODE        234   DOF  4
   INSTANCE: PART-1-1                                                                        
 LARGEST INCREMENT OF ROTATION     -5.813E-02   AT NODE        401   DOF  4
   INSTANCE: PART-1-1                                                                        
 LARGEST CORRECTION TO ROTATION     3.875E-06   AT NODE        404   DOF  4
   INSTANCE: PART-1-1                                                                        
          THE MOMENT    EQUILIBRIUM EQUATIONS HAVE CONVERGED
          TIME INCREMENT REDUCED TO   7.039E-02 TO MEET NEXT OUTPUT TIME POINT

 ITERATION SUMMARY FOR THE INCREMENT:   5 TOTAL ITERATIONS, OF WHICH
   0 ARE SEVERE DISCONTINUITY ITERATIONS AND  5 ARE EQUILIBRIUM ITERATIONS.

 TIME INCREMENT COMPLETED  7.400E-02,  FRACTION OF STEP COMPLETED  3.700E-02
 STEP TIME COMPLETED       7.400E-02,  TOTAL TIME COMPLETED        7.400E-02


  INCREMENT     2 STARTS. ATTEMPT NUMBER  1, TIME INCREMENT  7.039E-02

  NUMBER OF EQUATIONS =      2415     NUMBER OF RHS =    1
  NUMBER OF FLOATING PT. OPERATIONS =  5.10E+06

     CHECK POINT   START OF SOLVER    

     CHECK POINT  END OF SOLVER       

       ELAPSED USER TIME (SEC)      =  1.00000E-02
       ELAPSED SYSTEM TIME (SEC)    =   0.0000    
       ELAPSED TOTAL CPU TIME (SEC) =  1.00000E-02
       ELAPSED WALLCLOCK TIME (SEC) =          0
 

 ***WARNING: THE SYSTEM MATRIX HAS 7 NEGATIVE EIGENVALUES.
             EXPLANATIONS ARE SUGGESTED AFTER THE FIRST OCCURRENCE OF THIS MESSAGE.

               CONVERGENCE CHECKS FOR EQUILIBRIUM ITERATION     1


 AVERAGE FORCE                      0.660       TIME AVG. FORCE       0.660    
 LARGEST RESIDUAL FORCE             -52.3       AT NODE        264   DOF  2
   INSTANCE: PART-1-1                                                                        
 LARGEST INCREMENT OF DISP.          18.7       AT NODE        360   DOF  3
   INSTANCE: PART-1-1                                                                        
 LARGEST CORRECTION TO DISP.         21.6       AT NODE        364   DOF  3
   INSTANCE: PART-1-1                                                                        
          FORCE     EQUILIBRIUM NOT ACHIEVED WITHIN TOLERANCE.

 AVERAGE MOMENT                      1.43       TIME AVG. MOMENT      0.717    
 LARGEST RESIDUAL MOMENT            -93.7       AT NODE        263   DOF  4
   INSTANCE: PART-1-1                                                                        
 LARGEST INCREMENT OF ROTATION      0.847       AT NODE        256   DOF  4
   INSTANCE: PART-1-1                                                                        
 LARGEST CORRECTION TO ROTATION     0.899       AT NODE        256   DOF  4
   INSTANCE: PART-1-1                                                                        
          MOMENT    EQUILIBRIUM NOT ACHIEVED WITHIN TOLERANCE.

  NUMBER OF EQUATIONS =      2415     NUMBER OF RHS =    1
  NUMBER OF FLOATING PT. OPERATIONS =  5.10E+06

     CHECK POINT   START OF SOLVER    

     CHECK POINT  END OF SOLVER       

       ELAPSED USER TIME (SEC)      =  1.00000E-02
       ELAPSED SYSTEM TIME (SEC)    =   0.0000    
       ELAPSED TOTAL CPU TIME (SEC) =  1.00000E-02
       ELAPSED WALLCLOCK TIME (SEC) =          0
 

 ***WARNING: THE SYSTEM MATRIX HAS 231 NEGATIVE EIGENVALUES.
             EXPLANATIONS ARE SUGGESTED AFTER THE FIRST OCCURRENCE OF THIS MESSAGE.

               CONVERGENCE CHECKS FOR EQUILIBRIUM ITERATION     2


 AVERAGE FORCE                       1.05       TIME AVG. FORCE        1.05    
 LARGEST RESIDUAL FORCE             -294.       AT NODE        345   DOF  3
   INSTANCE: PART-1-1                                                                        
 LARGEST INCREMENT OF DISP.          21.5       AT NODE        341   DOF  3
   INSTANCE: PART-1-1                                                                        
 LARGEST CORRECTION TO DISP.        -7.29       AT NODE        329   DOF  2
   INSTANCE: PART-1-1                                                                        
          FORCE     EQUILIBRIUM NOT ACHIEVED WITHIN TOLERANCE.

 AVERAGE MOMENT                      2.27       TIME AVG. MOMENT       1.14    
 LARGEST RESIDUAL MOMENT            -119.       AT NODE        278   DOF  5
   INSTANCE: PART-1-1                                                                        
 LARGEST INCREMENT OF ROTATION      -3.84       AT NODE        301   DOF  5
   INSTANCE: PART-1-1                                                                        
 LARGEST CORRECTION TO ROTATION      8.66       AT NODE        341   DOF  5
   INSTANCE: PART-1-1                                                                        
          MOMENT    EQUILIBRIUM NOT ACHIEVED WITHIN TOLERANCE.

  NUMBER OF EQUATIONS =      2415     NUMBER OF RHS =    1
  NUMBER OF FLOATING PT. OPERATIONS =  5.10E+06

     CHECK POINT   START OF SOLVER    

     CHECK POINT  END OF SOLVER       

       ELAPSED USER TIME (SEC)      =   0.0000    
       ELAPSED SYSTEM TIME (SEC)    =   0.0000    
       ELAPSED TOTAL CPU TIME (SEC) =   0.0000    
       ELAPSED WALLCLOCK TIME (SEC) =          0
 

 ***WARNING: THE SYSTEM MATRIX HAS 394 NEGATIVE EIGENVALUES.
             EXPLANATIONS ARE SUGGESTED AFTER THE FIRST OCCURRENCE OF THIS MESSAGE.

               CONVERGENCE CHECKS FOR EQUILIBRIUM ITERATION     3


 AVERAGE FORCE                       16.1       TIME AVG. FORCE        16.1    
 LARGEST RESIDUAL FORCE             4.154E+03   AT NODE         60   DOF  3
   INSTANCE: PART-1-1                                                                        
 LARGEST INCREMENT OF DISP.         -144.       AT NODE         76   DOF  3
   INSTANCE: PART-1-1                                                                        
 LARGEST CORRECTION TO DISP.        -143.       AT NODE         76   DOF  3
   INSTANCE: PART-1-1                                                                        
          FORCE     EQUILIBRIUM NOT ACHIEVED WITHIN TOLERANCE.

 AVERAGE MOMENT                      165.       TIME AVG. MOMENT       82.3    
 LARGEST RESIDUAL MOMENT           -2.945E+04   AT NODE         59   DOF  4
   INSTANCE: PART-1-1                                                                        
 LARGEST INCREMENT OF ROTATION      -6.06       AT NODE         17   DOF  4
   INSTANCE: PART-1-1                                                                        
 LARGEST CORRECTION TO ROTATION      41.7       AT NODE        376   DOF  5
   INSTANCE: PART-1-1                                                                        
          MOMENT    EQUILIBRIUM NOT ACHIEVED WITHIN TOLERANCE.

  NUMBER OF EQUATIONS =      2415     NUMBER OF RHS =    1
  NUMBER OF FLOATING PT. OPERATIONS =  5.10E+06

     CHECK POINT   START OF SOLVER    

     CHECK POINT  END OF SOLVER       

       ELAPSED USER TIME (SEC)      =   0.0000    
       ELAPSED SYSTEM TIME (SEC)    =   0.0000    
       ELAPSED TOTAL CPU TIME (SEC) =   0.0000    
       ELAPSED WALLCLOCK TIME (SEC) =          0
 

 ***WARNING: THE SYSTEM MATRIX HAS 960 NEGATIVE EIGENVALUES.
             EXPLANATIONS ARE SUGGESTED AFTER THE FIRST OCCURRENCE OF THIS MESSAGE.

               CONVERGENCE CHECKS FOR EQUILIBRIUM ITERATION     4


 AVERAGE FORCE                       191.       TIME AVG. FORCE        191.    
 LARGEST RESIDUAL FORCE             2.437E+05   AT NODE         33   DOF  1
   INSTANCE: PART-1-1                                                                        
 LARGEST INCREMENT OF DISP.         1.083E+03   AT NODE         48   DOF  1
   INSTANCE: PART-1-1                                                                        
 LARGEST CORRECTION TO DISP.        1.083E+03   AT NODE         48   DOF  1
   INSTANCE: PART-1-1                                                                        
          FORCE     EQUILIBRIUM NOT ACHIEVED WITHIN TOLERANCE.

 AVERAGE MOMENT                     1.359E+05   TIME AVG. MOMENT      6.795E+04
 LARGEST RESIDUAL MOMENT           -8.337E+07   AT NODE         38   DOF  6
   INSTANCE: PART-1-1                                                                        
 LARGEST INCREMENT OF ROTATION      -5.02       AT NODE         69   DOF  5
   INSTANCE: PART-1-1                                                                        
 LARGEST CORRECTION TO ROTATION     1.749E+03   AT NODE         24   DOF  6
   INSTANCE: PART-1-1                                                                        
          MOMENT    EQUILIBRIUM NOT ACHIEVED WITHIN TOLERANCE.
 

 ***NOTE: THE SOLUTION APPEARS TO BE DIVERGING. CONVERGENCE IS JUDGED UNLIKELY.


  INCREMENT     2 STARTS. ATTEMPT NUMBER  2, TIME INCREMENT  1.760E-02

  NUMBER OF EQUATIONS =      2415     NUMBER OF RHS =    1
  NUMBER OF FLOATING PT. OPERATIONS =  5.10E+06

     CHECK POINT   START OF SOLVER    

     CHECK POINT  END OF SOLVER       

       ELAPSED USER TIME (SEC)      =  1.00000E-02
       ELAPSED SYSTEM TIME (SEC)    =   0.0000    
       ELAPSED TOTAL CPU TIME (SEC) =  1.00000E-02
       ELAPSED WALLCLOCK TIME (SEC) =          0
 

 ***WARNING: THE SYSTEM MATRIX HAS 1 NEGATIVE EIGENVALUES.
             EXPLANATIONS ARE SUGGESTED AFTER THE FIRST OCCURRENCE OF THIS MESSAGE.

               CONVERGENCE CHECKS FOR EQUILIBRIUM ITERATION     1


 AVERAGE FORCE                      2.253E-04   TIME AVG. FORCE       2.253E-04
 LARGEST RESIDUAL FORCE            -5.137E-02   AT NODE          1   DOF  2
   INSTANCE: REFPOINT-0                                                                      
 LARGEST INCREMENT OF DISP.         -1.61       AT NODE        401   DOF  3
   INSTANCE: PART-1-1                                                                        
 LARGEST CORRECTION TO DISP.       -0.784       AT NODE          1   DOF  3
   INSTANCE: REFPOINT-0                                                                      
          FORCE     EQUILIBRIUM NOT ACHIEVED WITHIN TOLERANCE.

 AVERAGE MOMENT                     2.523E-05   TIME AVG. MOMENT      1.306E-05
 LARGEST RESIDUAL MOMENT           -6.515E-04   AT NODE        399   DOF  4
   INSTANCE: PART-1-1                                                                        
 LARGEST INCREMENT OF ROTATION     -4.590E-02   AT NODE        401   DOF  4
   INSTANCE: PART-1-1                                                                        
 LARGEST CORRECTION TO ROTATION    -3.208E-02   AT NODE        401   DOF  4
   INSTANCE: PART-1-1                                                                        
          MOMENT    EQUILIBRIUM NOT ACHIEVED WITHIN TOLERANCE.

  NUMBER OF EQUATIONS =      2415     NUMBER OF RHS =    1
  NUMBER OF FLOATING PT. OPERATIONS =  5.10E+06

     CHECK POINT   START OF SOLVER    

     CHECK POINT  END OF SOLVER       

       ELAPSED USER TIME (SEC)      =  1.00000E-02
       ELAPSED SYSTEM TIME (SEC)    =   0.0000    
       ELAPSED TOTAL CPU TIME (SEC) =  1.00000E-02
       ELAPSED WALLCLOCK TIME (SEC) =          0

               CONVERGENCE CHECKS FOR EQUILIBRIUM ITERATION     2


 AVERAGE FORCE                      1.051E-05   TIME AVG. FORCE       1.051E-05
 LARGEST RESIDUAL FORCE            -4.847E-05   AT NODE         52   DOF  1
   INSTANCE: PART-1-1                                                                        
 LARGEST INCREMENT OF DISP.         -1.59       AT NODE        401   DOF  3
   INSTANCE: PART-1-1                                                                        
 LARGEST CORRECTION TO DISP.        1.728E-02   AT NODE        401   DOF  3
   INSTANCE: PART-1-1                                                                        
          FORCE     EQUILIBRIUM NOT ACHIEVED WITHIN TOLERANCE.

 AVERAGE MOMENT                     4.117E-06   TIME AVG. MOMENT      2.497E-06
 LARGEST RESIDUAL MOMENT           -1.868E-05   AT NODE         67   DOF  4
   INSTANCE: PART-1-1                                                                        
 LARGEST INCREMENT OF ROTATION     -4.576E-02   AT NODE        401   DOF  4
   INSTANCE: PART-1-1                                                                        
 LARGEST CORRECTION TO ROTATION    -2.262E-03   AT NODE         52   DOF  5
   INSTANCE: PART-1-1                                                                        
          MOMENT    EQUILIBRIUM NOT ACHIEVED WITHIN TOLERANCE.

  NUMBER OF EQUATIONS =      2415     NUMBER OF RHS =    1
  NUMBER OF FLOATING PT. OPERATIONS =  5.10E+06

     CHECK POINT   START OF SOLVER    

     CHECK POINT  END OF SOLVER       

       ELAPSED USER TIME (SEC)      =  1.00000E-02
       ELAPSED SYSTEM TIME (SEC)    =   0.0000    
       ELAPSED TOTAL CPU TIME (SEC) =  1.00000E-02
       ELAPSED WALLCLOCK TIME (SEC) =          0

               CONVERGENCE CHECKS FOR EQUILIBRIUM ITERATION     3


 AVERAGE FORCE                      2.154E-04   TIME AVG. FORCE       2.154E-04
 LARGEST RESIDUAL FORCE            -6.293E-02   AT NODE          1   DOF  2
   INSTANCE: REFPOINT-0                                                                      
 LARGEST INCREMENT OF DISP.        -0.948       AT NODE        401   DOF  3
   INSTANCE: PART-1-1                                                                        
 LARGEST CORRECTION TO DISP.        0.642       AT NODE        401   DOF  3
   INSTANCE: PART-1-1                                                                        
          FORCE     EQUILIBRIUM NOT ACHIEVED WITHIN TOLERANCE.

 AVERAGE MOMENT                     3.282E-05   TIME AVG. MOMENT      1.685E-05
 LARGEST RESIDUAL MOMENT           -1.682E-03   AT NODE        399   DOF  4
   INSTANCE: PART-1-1                                                                        
 LARGEST INCREMENT OF ROTATION     -1.736E-02   AT NODE        208   DOF  4
   INSTANCE: PART-1-1                                                                        
 LARGEST CORRECTION TO ROTATION     3.497E-02   AT NODE        404   DOF  4
   INSTANCE: PART-1-1                                                                        
          MOMENT    EQUILIBRIUM NOT ACHIEVED WITHIN TOLERANCE.

  NUMBER OF EQUATIONS =      2415     NUMBER OF RHS =    1
  NUMBER OF FLOATING PT. OPERATIONS =  5.10E+06

     CHECK POINT   START OF SOLVER    

     CHECK POINT  END OF SOLVER       

       ELAPSED USER TIME (SEC)      =   0.0000    
       ELAPSED SYSTEM TIME (SEC)    =   0.0000    
       ELAPSED TOTAL CPU TIME (SEC) =   0.0000    
       ELAPSED WALLCLOCK TIME (SEC) =          0

               CONVERGENCE CHECKS FOR EQUILIBRIUM ITERATION     4


 AVERAGE FORCE                      4.048E-06   TIME AVG. FORCE       4.048E-06
 LARGEST RESIDUAL FORCE            -3.012E-04   AT NODE        264   DOF  1
   INSTANCE: PART-1-1                                                                        
 LARGEST INCREMENT OF DISP.        -0.946       AT NODE        401   DOF  3
   INSTANCE: PART-1-1                                                                        
 LARGEST CORRECTION TO DISP.       -9.874E-03   AT NODE        401   DOF  2
   INSTANCE: PART-1-1                                                                        
          FORCE     EQUILIBRIUM NOT ACHIEVED WITHIN TOLERANCE.

 AVERAGE MOMENT                     2.633E-06   TIME AVG. MOMENT      1.755E-06
 LARGEST RESIDUAL MOMENT            7.830E-06   AT NODE        398   DOF  4
   INSTANCE: PART-1-1                                                                        
 LARGEST INCREMENT OF ROTATION     -1.700E-02   AT NODE        208   DOF  4
   INSTANCE: PART-1-1                                                                        
 LARGEST CORRECTION TO ROTATION    -5.622E-03   AT NODE        264   DOF  5
   INSTANCE: PART-1-1                                                                        
          MOMENT    EQUILIBRIUM NOT ACHIEVED WITHIN TOLERANCE.

  NUMBER OF EQUATIONS =      2415     NUMBER OF RHS =    1
  NUMBER OF FLOATING PT. OPERATIONS =  5.10E+06

     CHECK POINT   START OF SOLVER    

     CHECK POINT  END OF SOLVER       

       ELAPSED USER TIME (SEC)      =   0.0000    
       ELAPSED SYSTEM TIME (SEC)    =   0.0000    
       ELAPSED TOTAL CPU TIME (SEC) =   0.0000    
       ELAPSED WALLCLOCK TIME (SEC) =          0

               CONVERGENCE CHECKS FOR EQUILIBRIUM ITERATION     5


 AVERAGE FORCE                      1.373E-05   TIME AVG. FORCE       1.373E-05
 LARGEST RESIDUAL FORCE            -4.636E-03   AT NODE          1   DOF  2
   INSTANCE: REFPOINT-0                                                                      
 LARGEST INCREMENT OF DISP.         -1.08       AT NODE        401   DOF  3
   INSTANCE: PART-1-1                                                                        
 LARGEST CORRECTION TO DISP.       -0.139       AT NODE        401   DOF  3
   INSTANCE: PART-1-1                                                                        
          FORCE     EQUILIBRIUM NOT ACHIEVED WITHIN TOLERANCE.

 AVERAGE MOMENT                     3.100E-06   TIME AVG. MOMENT      1.988E-06
 LARGEST RESIDUAL MOMENT            3.108E-05   AT NODE        399   DOF  4
   INSTANCE: PART-1-1                                                                        
 LARGEST INCREMENT OF ROTATION     -2.036E-02   AT NODE        401   DOF  4
   INSTANCE: PART-1-1                                                                        
 LARGEST CORRECTION TO ROTATION    -9.529E-03   AT NODE        404   DOF  4
   INSTANCE: PART-1-1                                                                        
          MOMENT    EQUILIBRIUM NOT ACHIEVED WITHIN TOLERANCE.

  NUMBER OF EQUATIONS =      2415     NUMBER OF RHS =    1
  NUMBER OF FLOATING PT. OPERATIONS =  5.10E+06

     CHECK POINT   START OF SOLVER    

     CHECK POINT  END OF SOLVER       

       ELAPSED USER TIME (SEC)      =   0.0000    
       ELAPSED SYSTEM TIME (SEC)    =   0.0000    
       ELAPSED TOTAL CPU TIME (SEC) =   0.0000    
       ELAPSED WALLCLOCK TIME (SEC) =          0

               CONVERGENCE CHECKS FOR EQUILIBRIUM ITERATION     6


 AVERAGE FORCE                      3.765E-06   TIME AVG. FORCE       3.765E-06
 LARGEST RESIDUAL FORCE             3.492E-04   AT NODE        269   DOF  1
   INSTANCE: PART-1-1                                                                        
 LARGEST INCREMENT OF DISP.         -1.08       AT NODE        401   DOF  3
   INSTANCE: PART-1-1                                                                        
 LARGEST CORRECTION TO DISP.        7.942E-03   AT NODE        284   DOF  3
   INSTANCE: PART-1-1                                                                        
          FORCE     EQUILIBRIUM NOT ACHIEVED WITHIN TOLERANCE.

 AVERAGE MOMENT                     2.577E-06   TIME AVG. MOMENT      1.727E-06
 LARGEST RESIDUAL MOMENT            9.635E-06   AT NODE        278   DOF  5
   INSTANCE: PART-1-1                                                                        
 LARGEST INCREMENT OF ROTATION     -1.988E-02   AT NODE        401   DOF  4
   INSTANCE: PART-1-1                                                                        
 LARGEST CORRECTION TO ROTATION    -6.041E-03   AT NODE        269   DOF  5
   INSTANCE: PART-1-1                                                                        
          MOMENT    EQUILIBRIUM NOT ACHIEVED WITHIN TOLERANCE.

  NUMBER OF EQUATIONS =      2415     NUMBER OF RHS =    1
  NUMBER OF FLOATING PT. OPERATIONS =  5.10E+06

     CHECK POINT   START OF SOLVER    

     CHECK POINT  END OF SOLVER       

       ELAPSED USER TIME (SEC)      =  1.00000E-02
       ELAPSED SYSTEM TIME (SEC)    =   0.0000    
       ELAPSED TOTAL CPU TIME (SEC) =  1.00000E-02
       ELAPSED WALLCLOCK TIME (SEC) =          0

               CONVERGENCE CHECKS FOR EQUILIBRIUM ITERATION     7


 AVERAGE FORCE                      1.171E-06   TIME AVG. FORCE       1.171E-06
 LARGEST RESIDUAL FORCE            -1.614E-04   AT NODE          1   DOF  2
   INSTANCE: REFPOINT-0                                                                      
 LARGEST INCREMENT OF DISP.         -1.06       AT NODE        401   DOF  3
   INSTANCE: PART-1-1                                                                        
 LARGEST CORRECTION TO DISP.        2.479E-02   AT NODE          1   DOF  3
   INSTANCE: REFPOINT-0                                                                      
          FORCE     EQUILIBRIUM NOT ACHIEVED WITHIN TOLERANCE.

 AVERAGE MOMENT                     2.371E-06   TIME AVG. MOMENT      1.624E-06
 LARGEST RESIDUAL MOMENT           -4.042E-07   AT NODE        158   DOF  4
   INSTANCE: PART-1-1                                                                        
 LARGEST INCREMENT OF ROTATION     -1.812E-02   AT NODE        401   DOF  4
   INSTANCE: PART-1-1                                                                        
 LARGEST CORRECTION TO ROTATION     1.765E-03   AT NODE        401   DOF  4
   INSTANCE: PART-1-1                                                                        
          MOMENT    EQUILIBRIUM NOT ACHIEVED WITHIN TOLERANCE.

  NUMBER OF EQUATIONS =      2415     NUMBER OF RHS =    1
  NUMBER OF FLOATING PT. OPERATIONS =  5.10E+06

     CHECK POINT   START OF SOLVER    

     CHECK POINT  END OF SOLVER       

       ELAPSED USER TIME (SEC)      =  1.00000E-02
       ELAPSED SYSTEM TIME (SEC)    =   0.0000    
       ELAPSED TOTAL CPU TIME (SEC) =  1.00000E-02
       ELAPSED WALLCLOCK TIME (SEC) =          0

               CONVERGENCE CHECKS FOR EQUILIBRIUM ITERATION     8


 AVERAGE FORCE                      1.188E-06   TIME AVG. FORCE       1.188E-06
 LARGEST RESIDUAL FORCE            -1.172E-04   AT NODE        228   DOF  1
   INSTANCE: PART-1-1                                                                        
 LARGEST INCREMENT OF DISP.         -1.06       AT NODE        401   DOF  3
   INSTANCE: PART-1-1                                                                        
 LARGEST CORRECTION TO DISP.        4.675E-03   AT NODE        224   DOF  3
   INSTANCE: PART-1-1                                                                        
          FORCE     EQUILIBRIUM NOT ACHIEVED WITHIN TOLERANCE.

 AVERAGE MOMENT                     2.379E-06   TIME AVG. MOMENT      1.628E-06
 LARGEST RESIDUAL MOMENT           -4.238E-06   AT NODE        242   DOF  4
   INSTANCE: PART-1-1                                                                        
 LARGEST INCREMENT OF ROTATION     -1.800E-02   AT NODE        389   DOF  4
   INSTANCE: PART-1-1                                                                        
 LARGEST CORRECTION TO ROTATION    -3.501E-03   AT NODE        228   DOF  5
   INSTANCE: PART-1-1                                                                        
          MOMENT    EQUILIBRIUM NOT ACHIEVED WITHIN TOLERANCE.

  NUMBER OF EQUATIONS =      2415     NUMBER OF RHS =    1
  NUMBER OF FLOATING PT. OPERATIONS =  5.10E+06

     CHECK POINT   START OF SOLVER    

     CHECK POINT  END OF SOLVER       

       ELAPSED USER TIME (SEC)      =   0.0000    
       ELAPSED SYSTEM TIME (SEC)    =   0.0000    
       ELAPSED TOTAL CPU TIME (SEC) =   0.0000    
       ELAPSED WALLCLOCK TIME (SEC) =          0

               CONVERGENCE CHECKS FOR EQUILIBRIUM ITERATION     9


 AVERAGE FORCE                      1.845E-07   TIME AVG. FORCE       1.845E-07
 LARGEST RESIDUAL FORCE             5.931E-07   AT NODE        153   DOF  1
   INSTANCE: PART-1-1                                                                        
 LARGEST INCREMENT OF DISP.         -1.06       AT NODE        401   DOF  3
   INSTANCE: PART-1-1                                                                        
 LARGEST CORRECTION TO DISP.       -4.443E-04   AT NODE        169   DOF  3
   INSTANCE: PART-1-1                                                                        
          FORCE     EQUILIBRIUM NOT ACHIEVED WITHIN TOLERANCE.

 AVERAGE MOMENT                     2.324E-06   TIME AVG. MOMENT      1.600E-06
 LARGEST RESIDUAL MOMENT           -7.582E-08   AT NODE        191   DOF  5
   INSTANCE: PART-1-1                                                                        
 LARGEST INCREMENT OF ROTATION     -1.799E-02   AT NODE        401   DOF  4
   INSTANCE: PART-1-1                                                                        
 LARGEST CORRECTION TO ROTATION    -2.494E-04   AT NODE        153   DOF  5
   INSTANCE: PART-1-1                                                                        
          MOMENT    EQUILIBRIUM NOT ACHIEVED WITHIN TOLERANCE.

  NUMBER OF EQUATIONS =      2415     NUMBER OF RHS =    1
  NUMBER OF FLOATING PT. OPERATIONS =  5.10E+06

     CHECK POINT   START OF SOLVER    

     CHECK POINT  END OF SOLVER       

       ELAPSED USER TIME (SEC)      =  1.00000E-02
       ELAPSED SYSTEM TIME (SEC)    =  1.00000E-02
       ELAPSED TOTAL CPU TIME (SEC) =  2.00000E-02
       ELAPSED WALLCLOCK TIME (SEC) =          0

               CONVERGENCE CHECKS FOR EQUILIBRIUM ITERATION    10


 AVERAGE FORCE                      6.095E-08   TIME AVG. FORCE       1.000E-02
 LARGEST RESIDUAL FORCE            -3.809E-06   AT NODE        204   DOF  1
   INSTANCE: PART-1-1                                                                        
 LARGEST INCREMENT OF DISP.         -1.06       AT NODE        401   DOF  3
   INSTANCE: PART-1-1                                                                        
 LARGEST CORRECTION TO DISP.        7.396E-04   AT NODE        204   DOF  3
   INSTANCE: PART-1-1                                                                        
          ALL DISP.    CORRECTIONS ARE ZERO

 AVERAGE MOMENT                     2.367E-06   TIME AVG. MOMENT      1.622E-06
 LARGEST RESIDUAL MOMENT           -1.409E-07   AT NODE        227   DOF  4
   INSTANCE: PART-1-1                                                                        
 LARGEST INCREMENT OF ROTATION     -1.797E-02   AT NODE        401   DOF  4
   INSTANCE: PART-1-1                                                                        
 LARGEST CORRECTION TO ROTATION    -6.313E-04   AT NODE        204   DOF  5
   INSTANCE: PART-1-1                                                                        
          MOMENT    EQUILIBRIUM NOT ACHIEVED WITHIN TOLERANCE.
 

 ***NOTE: THE RATE OF CONVERGENCE IS VERY SLOW. CONVERGENCE IS JUDGED UNLIKELY.


  INCREMENT     2 STARTS. ATTEMPT NUMBER  3, TIME INCREMENT  8.799E-03

  NUMBER OF EQUATIONS =      2415     NUMBER OF RHS =    1
  NUMBER OF FLOATING PT. OPERATIONS =  5.10E+06

     CHECK POINT   START OF SOLVER    

     CHECK POINT  END OF SOLVER       

       ELAPSED USER TIME (SEC)      =  1.00000E-02
       ELAPSED SYSTEM TIME (SEC)    =   0.0000    
       ELAPSED TOTAL CPU TIME (SEC) =  1.00000E-02
       ELAPSED WALLCLOCK TIME (SEC) =          0

               CONVERGENCE CHECKS FOR EQUILIBRIUM ITERATION     1


 AVERAGE FORCE                      4.432E-06   TIME AVG. FORCE       4.432E-06
 LARGEST RESIDUAL FORCE            -5.668E-04   AT NODE          1   DOF  2
   INSTANCE: REFPOINT-0                                                                      
 LARGEST INCREMENT OF DISP.        -0.505       AT NODE        401   DOF  3
   INSTANCE: PART-1-1                                                                        
 LARGEST CORRECTION TO DISP.       -9.377E-02   AT NODE        401   DOF  3
   INSTANCE: PART-1-1                                                                        
          FORCE     EQUILIBRIUM NOT ACHIEVED WITHIN TOLERANCE.

 AVERAGE MOMENT                     5.260E-06   TIME AVG. MOMENT      3.068E-06
 LARGEST RESIDUAL MOMENT           -9.002E-05   AT NODE        391   DOF  4
   INSTANCE: PART-1-1                                                                        
 LARGEST INCREMENT OF ROTATION     -1.045E-02   AT NODE        404   DOF  4
   INSTANCE: PART-1-1                                                                        
 LARGEST CORRECTION TO ROTATION    -3.536E-03   AT NODE        404   DOF  4
   INSTANCE: PART-1-1                                                                        
          MOMENT    EQUILIBRIUM NOT ACHIEVED WITHIN TOLERANCE.

  NUMBER OF EQUATIONS =      2415     NUMBER OF RHS =    1
  NUMBER OF FLOATING PT. OPERATIONS =  5.10E+06

     CHECK POINT   START OF SOLVER    

     CHECK POINT  END OF SOLVER       

       ELAPSED USER TIME (SEC)      =  1.00000E-02
       ELAPSED SYSTEM TIME (SEC)    =   0.0000    
       ELAPSED TOTAL CPU TIME (SEC) =  1.00000E-02
       ELAPSED WALLCLOCK TIME (SEC) =          0

               CONVERGENCE CHECKS FOR EQUILIBRIUM ITERATION     2


 AVERAGE FORCE                      7.999E-07   TIME AVG. FORCE       7.999E-07
 LARGEST RESIDUAL FORCE            -3.425E-05   AT NODE          1   DOF  2
   INSTANCE: REFPOINT-0                                                                      
 LARGEST INCREMENT OF DISP.        -0.486       AT NODE        401   DOF  3
   INSTANCE: PART-1-1                                                                        
 LARGEST CORRECTION TO DISP.        1.926E-02   AT NODE        401   DOF  3
   INSTANCE: PART-1-1                                                                        
          FORCE     EQUILIBRIUM NOT ACHIEVED WITHIN TOLERANCE.

 AVERAGE MOMENT                     2.143E-06   TIME AVG. MOMENT      1.510E-06
 LARGEST RESIDUAL MOMENT            2.481E-06   AT NODE        266   DOF  5
   INSTANCE: PART-1-1                                                                        
 LARGEST INCREMENT OF ROTATION     -9.624E-03   AT NODE        404   DOF  4
   INSTANCE: PART-1-1                                                                        
 LARGEST CORRECTION TO ROTATION     8.230E-04   AT NODE        404   DOF  4
   INSTANCE: PART-1-1                                                                        
          MOMENT    EQUILIBRIUM NOT ACHIEVED WITHIN TOLERANCE.

  NUMBER OF EQUATIONS =      2415     NUMBER OF RHS =    1
  NUMBER OF FLOATING PT. OPERATIONS =  5.10E+06

     CHECK POINT   START OF SOLVER    

     CHECK POINT  END OF SOLVER       

       ELAPSED USER TIME (SEC)      =  1.00000E-02
       ELAPSED SYSTEM TIME (SEC)    =   0.0000    
       ELAPSED TOTAL CPU TIME (SEC) =  1.00000E-02
       ELAPSED WALLCLOCK TIME (SEC) =          0

               CONVERGENCE CHECKS FOR EQUILIBRIUM ITERATION     3


 AVERAGE FORCE                      8.483E-07   TIME AVG. FORCE       8.483E-07
 LARGEST RESIDUAL FORCE            -1.116E-04   AT NODE          1   DOF  2
   INSTANCE: REFPOINT-0                                                                      
 LARGEST INCREMENT OF DISP.        -0.467       AT NODE        401   DOF  3
   INSTANCE: PART-1-1                                                                        
 LARGEST CORRECTION TO DISP.        1.855E-02   AT NODE        401   DOF  3
   INSTANCE: PART-1-1                                                                        
          FORCE     EQUILIBRIUM NOT ACHIEVED WITHIN TOLERANCE.

 AVERAGE MOMENT                     2.028E-06   TIME AVG. MOMENT      1.452E-06
 LARGEST RESIDUAL MOMENT           -1.226E-06   AT NODE        263   DOF  4
   INSTANCE: PART-1-1                                                                        
 LARGEST INCREMENT OF ROTATION     -8.036E-03   AT NODE        404   DOF  4
   INSTANCE: PART-1-1                                                                        
 LARGEST CORRECTION TO ROTATION     2.378E-03   AT NODE        237   DOF  5
   INSTANCE: PART-1-1                                                                        
          MOMENT    EQUILIBRIUM NOT ACHIEVED WITHIN TOLERANCE.

  NUMBER OF EQUATIONS =      2415     NUMBER OF RHS =    1
  NUMBER OF FLOATING PT. OPERATIONS =  5.10E+06

     CHECK POINT   START OF SOLVER    

     CHECK POINT  END OF SOLVER       

       ELAPSED USER TIME (SEC)      =   0.0000    
       ELAPSED SYSTEM TIME (SEC)    =   0.0000    
       ELAPSED TOTAL CPU TIME (SEC) =   0.0000    
       ELAPSED WALLCLOCK TIME (SEC) =          0

               CONVERGENCE CHECKS FOR EQUILIBRIUM ITERATION     4


 AVERAGE FORCE                      7.564E-08   TIME AVG. FORCE       1.000E-02
 LARGEST RESIDUAL FORCE            -1.096E-06   AT NODE          1   DOF  2
   INSTANCE: REFPOINT-0                                                                      
 LARGEST INCREMENT OF DISP.        -0.466       AT NODE        401   DOF  3
   INSTANCE: PART-1-1                                                                        
 LARGEST CORRECTION TO DISP.        1.822E-03   AT NODE        401   DOF  3
   INSTANCE: PART-1-1                                                                        
          THE FORCE     IS ZERO EVERYWHERE BUT THE FORCE     RESIDUAL OR
          THE DISP.    CORRECTION IS NON-ZERO

 AVERAGE MOMENT                     2.018E-06   TIME AVG. MOMENT      1.447E-06
 LARGEST RESIDUAL MOMENT            2.630E-08   AT NODE        175   DOF  5
   INSTANCE: PART-1-1                                                                        
 LARGEST INCREMENT OF ROTATION     -7.889E-03   AT NODE        404   DOF  4
   INSTANCE: PART-1-1                                                                        
 LARGEST CORRECTION TO ROTATION     1.473E-04   AT NODE        404   DOF  4
   INSTANCE: PART-1-1                                                                        
          MOMENT    EQUILIBRIUM NOT ACHIEVED WITHIN TOLERANCE.

  NUMBER OF EQUATIONS =      2415     NUMBER OF RHS =    1
  NUMBER OF FLOATING PT. OPERATIONS =  5.10E+06

     CHECK POINT   START OF SOLVER    

     CHECK POINT  END OF SOLVER       

       ELAPSED USER TIME (SEC)      =  1.00000E-02
       ELAPSED SYSTEM TIME (SEC)    =   0.0000    
       ELAPSED TOTAL CPU TIME (SEC) =  1.00000E-02
       ELAPSED WALLCLOCK TIME (SEC) =          0

               CONVERGENCE CHECKS FOR EQUILIBRIUM ITERATION     5


 AVERAGE FORCE                      3.467E-08   TIME AVG. FORCE       1.000E-02
 LARGEST RESIDUAL FORCE            -5.000E-07   AT NODE        232   DOF  1
   INSTANCE: PART-1-1                                                                        
 LARGEST INCREMENT OF DISP.        -0.465       AT NODE        401   DOF  3
   INSTANCE: PART-1-1                                                                        
 LARGEST CORRECTION TO DISP.        4.985E-04   AT NODE        401   DOF  3
   INSTANCE: PART-1-1                                                                        
          THE FORCE     IS ZERO EVERYWHERE BUT THE FORCE     RESIDUAL OR
          THE DISP.    CORRECTION IS NON-ZERO

 AVERAGE MOMENT                     2.065E-06   TIME AVG. MOMENT      1.471E-06
 LARGEST RESIDUAL MOMENT           -1.638E-08   AT NODE        238   DOF  4
   INSTANCE: PART-1-1                                                                        
 LARGEST INCREMENT OF ROTATION     -7.833E-03   AT NODE        401   DOF  4
   INSTANCE: PART-1-1                                                                        
 LARGEST CORRECTION TO ROTATION     2.288E-04   AT NODE        225   DOF  5
   INSTANCE: PART-1-1                                                                        
          MOMENT    EQUILIBRIUM NOT ACHIEVED WITHIN TOLERANCE.

  NUMBER OF EQUATIONS =      2415     NUMBER OF RHS =    1
  NUMBER OF FLOATING PT. OPERATIONS =  5.10E+06

     CHECK POINT   START OF SOLVER    

     CHECK POINT  END OF SOLVER       

       ELAPSED USER TIME (SEC)      =  1.00000E-02
       ELAPSED SYSTEM TIME (SEC)    =   0.0000    
       ELAPSED TOTAL CPU TIME (SEC) =  1.00000E-02
       ELAPSED WALLCLOCK TIME (SEC) =          0

               CONVERGENCE CHECKS FOR EQUILIBRIUM ITERATION     6


 AVERAGE FORCE                      3.007E-08   TIME AVG. FORCE       1.000E-02
 LARGEST RESIDUAL FORCE             5.645E-12   AT NODE        197   DOF  1
   INSTANCE: PART-1-1                                                                        
 LARGEST INCREMENT OF DISP.        -0.465       AT NODE        401   DOF  3
   INSTANCE: PART-1-1                                                                        
 LARGEST CORRECTION TO DISP.        3.458E-06   AT NODE        401   DOF  3
   INSTANCE: PART-1-1                                                                        
          THERE IS ZERO FORCE     EVERYWHERE
 

 ***WARNING: THERE IS ZERO FORCE EVERYWHERE IN THE MODEL BASED ON THE DEFAULT 
             CRITERION. PLEASE CHECK THE VALUE OF THE AVERAGE FORCE DURING THE 
             CURRENT ITERATION TO VERIFY THAT THE FORCE IS SMALL ENOUGH TO BE 
             TREATED AS ZERO. IF NOT, PLEASE USE THE SOLUTION CONTROLS TO RESET 
             THE CRITERION FOR ZERO FORCE.

 AVERAGE MOMENT                     2.071E-06   TIME AVG. MOMENT      1.474E-06
 LARGEST RESIDUAL MOMENT            2.757E-12   AT NODE        210   DOF  5
   INSTANCE: PART-1-1                                                                        
 LARGEST INCREMENT OF ROTATION     -7.833E-03   AT NODE        401   DOF  4
   INSTANCE: PART-1-1                                                                        
 LARGEST CORRECTION TO ROTATION     7.698E-07   AT NODE        204   DOF  5
   INSTANCE: PART-1-1                                                                        
          THE MOMENT    EQUILIBRIUM EQUATIONS HAVE CONVERGED

 ITERATION SUMMARY FOR THE INCREMENT:   6 TOTAL ITERATIONS, OF WHICH
   0 ARE SEVERE DISCONTINUITY ITERATIONS AND  6 ARE EQUILIBRIUM ITERATIONS.

 TIME INCREMENT COMPLETED  8.799E-03,  FRACTION OF STEP COMPLETED  4.140E-02
 STEP TIME COMPLETED       8.280E-02,  TOTAL TIME COMPLETED        8.280E-02


  INCREMENT     3 STARTS. ATTEMPT NUMBER  1, TIME INCREMENT  8.799E-03

  NUMBER OF EQUATIONS =      2415     NUMBER OF RHS =    1
  NUMBER OF FLOATING PT. OPERATIONS =  5.10E+06

     CHECK POINT   START OF SOLVER    

     CHECK POINT  END OF SOLVER       

       ELAPSED USER TIME (SEC)      =  1.00000E-02
       ELAPSED SYSTEM TIME (SEC)    =   0.0000    
       ELAPSED TOTAL CPU TIME (SEC) =  1.00000E-02
       ELAPSED WALLCLOCK TIME (SEC) =          0

               CONVERGENCE CHECKS FOR EQUILIBRIUM ITERATION     1


 AVERAGE FORCE                      7.381E-07   TIME AVG. FORCE       7.381E-07
 LARGEST RESIDUAL FORCE            -6.207E-05   AT NODE          1   DOF  2
   INSTANCE: REFPOINT-0                                                                      
 LARGEST INCREMENT OF DISP.        -0.526       AT NODE        401   DOF  3
   INSTANCE: PART-1-1                                                                        
 LARGEST CORRECTION TO DISP.       -6.048E-02   AT NODE          1   DOF  3
   INSTANCE: REFPOINT-0                                                                      
          FORCE     EQUILIBRIUM NOT ACHIEVED WITHIN TOLERANCE.

 AVERAGE MOMENT                     2.578E-06   TIME AVG. MOMENT      1.842E-06
 LARGEST RESIDUAL MOMENT           -8.029E-06   AT NODE        394   DOF  4
   INSTANCE: PART-1-1                                                                        
 LARGEST INCREMENT OF ROTATION     -8.940E-03   AT NODE        404   DOF  4
   INSTANCE: PART-1-1                                                                        
 LARGEST CORRECTION TO ROTATION    -1.107E-03   AT NODE        404   DOF  4
   INSTANCE: PART-1-1                                                                        
          MOMENT    EQUILIBRIUM NOT ACHIEVED WITHIN TOLERANCE.

  NUMBER OF EQUATIONS =      2415     NUMBER OF RHS =    1
  NUMBER OF FLOATING PT. OPERATIONS =  5.10E+06

     CHECK POINT   START OF SOLVER    

     CHECK POINT  END OF SOLVER       

       ELAPSED USER TIME (SEC)      =  1.00000E-02
       ELAPSED SYSTEM TIME (SEC)    =   0.0000    
       ELAPSED TOTAL CPU TIME (SEC) =  1.00000E-02
       ELAPSED WALLCLOCK TIME (SEC) =          0

               CONVERGENCE CHECKS FOR EQUILIBRIUM ITERATION     2


 AVERAGE FORCE                      3.107E-08   TIME AVG. FORCE       1.000E-02
 LARGEST RESIDUAL FORCE            -1.122E-07   AT NODE          1   DOF  2
   INSTANCE: REFPOINT-0                                                                      
 LARGEST INCREMENT OF DISP.        -0.525       AT NODE        401   DOF  3
   INSTANCE: PART-1-1                                                                        
 LARGEST CORRECTION TO DISP.        7.717E-04   AT NODE        401   DOF  3
   INSTANCE: PART-1-1                                                                        
          THE FORCE     IS ZERO EVERYWHERE BUT THE FORCE     RESIDUAL OR
          THE DISP.    CORRECTION IS NON-ZERO

 AVERAGE MOMENT                     2.340E-06   TIME AVG. MOMENT      1.762E-06
 LARGEST RESIDUAL MOMENT            3.355E-09   AT NODE        399   DOF  4
   INSTANCE: PART-1-1                                                                        
 LARGEST INCREMENT OF ROTATION     -8.893E-03   AT NODE        402   DOF  4
   INSTANCE: PART-1-1                                                                        
 LARGEST CORRECTION TO ROTATION     4.662E-05   AT NODE        404   DOF  4
   INSTANCE: PART-1-1                                                                        
          THE MOMENT    EQUILIBRIUM EQUATIONS HAVE CONVERGED

  NUMBER OF EQUATIONS =      2415     NUMBER OF RHS =    1
  NUMBER OF FLOATING PT. OPERATIONS =  5.10E+06

     CHECK POINT   START OF SOLVER    

     CHECK POINT  END OF SOLVER       

       ELAPSED USER TIME (SEC)      =   0.0000    
       ELAPSED SYSTEM TIME (SEC)    =   0.0000    
       ELAPSED TOTAL CPU TIME (SEC) =   0.0000    
       ELAPSED WALLCLOCK TIME (SEC) =          0

               CONVERGENCE CHECKS FOR EQUILIBRIUM ITERATION     3


 AVERAGE FORCE                      3.080E-08   TIME AVG. FORCE       1.000E-02
 LARGEST RESIDUAL FORCE            -6.511E-09   AT NODE          1   DOF  2
   INSTANCE: REFPOINT-0                                                                      
 LARGEST INCREMENT OF DISP.        -0.525       AT NODE        401   DOF  3
   INSTANCE: PART-1-1                                                                        
 LARGEST CORRECTION TO DISP.        1.460E-04   AT NODE        401   DOF  3
   INSTANCE: PART-1-1                                                                        
          THERE IS ZERO FORCE     EVERYWHERE
 

 ***WARNING: THERE IS ZERO FORCE EVERYWHERE IN THE MODEL BASED ON THE DEFAULT 
             CRITERION. PLEASE CHECK THE VALUE OF THE AVERAGE FORCE DURING THE 
             CURRENT ITERATION TO VERIFY THAT THE FORCE IS SMALL ENOUGH TO BE 
             TREATED AS ZERO. IF NOT, PLEASE USE THE SOLUTION CONTROLS TO RESET 
             THE CRITERION FOR ZERO FORCE.

 AVERAGE MOMENT                     2.340E-06   TIME AVG. MOMENT      1.762E-06
 LARGEST RESIDUAL MOMENT            1.859E-12   AT NODE        314   DOF  5
   INSTANCE: PART-1-1                                                                        
 LARGEST INCREMENT OF ROTATION     -8.882E-03   AT NODE        401   DOF  4
   INSTANCE: PART-1-1                                                                        
 LARGEST CORRECTION TO ROTATION     1.116E-05   AT NODE        404   DOF  4
   INSTANCE: PART-1-1                                                                        
          THE MOMENT    EQUILIBRIUM EQUATIONS HAVE CONVERGED

 ITERATION SUMMARY FOR THE INCREMENT:   3 TOTAL ITERATIONS, OF WHICH
   0 ARE SEVERE DISCONTINUITY ITERATIONS AND  3 ARE EQUILIBRIUM ITERATIONS.

 TIME INCREMENT COMPLETED  8.799E-03,  FRACTION OF STEP COMPLETED  4.580E-02
 STEP TIME COMPLETED       9.160E-02,  TOTAL TIME COMPLETED        9.160E-02


  INCREMENT     4 STARTS. ATTEMPT NUMBER  1, TIME INCREMENT  8.799E-03

  NUMBER OF EQUATIONS =      2415     NUMBER OF RHS =    1
  NUMBER OF FLOATING PT. OPERATIONS =  5.10E+06

     CHECK POINT   START OF SOLVER    

     CHECK POINT  END OF SOLVER       

       ELAPSED USER TIME (SEC)      =   0.0000    
       ELAPSED SYSTEM TIME (SEC)    =   0.0000    
       ELAPSED TOTAL CPU TIME (SEC) =   0.0000    
       ELAPSED WALLCLOCK TIME (SEC) =          0

               CONVERGENCE CHECKS FOR EQUILIBRIUM ITERATION     1


 AVERAGE FORCE                      9.295E-07   TIME AVG. FORCE       9.295E-07
 LARGEST RESIDUAL FORCE            -8.263E-05   AT NODE          1   DOF  2
   INSTANCE: REFPOINT-0                                                                      
 LARGEST INCREMENT OF DISP.        -0.591       AT NODE        401   DOF  3
   INSTANCE: PART-1-1                                                                        
 LARGEST CORRECTION TO DISP.       -6.609E-02   AT NODE          1   DOF  3
   INSTANCE: REFPOINT-0                                                                      
          FORCE     EQUILIBRIUM NOT ACHIEVED WITHIN TOLERANCE.

 AVERAGE MOMENT                     3.031E-06   TIME AVG. MOMENT      2.080E-06
 LARGEST RESIDUAL MOMENT           -1.198E-05   AT NODE        394   DOF  4
   INSTANCE: PART-1-1                                                                        
 LARGEST INCREMENT OF ROTATION     -1.017E-02   AT NODE        404   DOF  4
   INSTANCE: PART-1-1                                                                        
 LARGEST CORRECTION TO ROTATION    -1.286E-03   AT NODE        404   DOF  4
   INSTANCE: PART-1-1                                                                        
          MOMENT    EQUILIBRIUM NOT ACHIEVED WITHIN TOLERANCE.

  NUMBER OF EQUATIONS =      2415     NUMBER OF RHS =    1
  NUMBER OF FLOATING PT. OPERATIONS =  5.10E+06

     CHECK POINT   START OF SOLVER    

     CHECK POINT  END OF SOLVER       

       ELAPSED USER TIME (SEC)      =  1.00000E-02
       ELAPSED SYSTEM TIME (SEC)    =   0.0000    
       ELAPSED TOTAL CPU TIME (SEC) =  1.00000E-02
       ELAPSED WALLCLOCK TIME (SEC) =          0

               CONVERGENCE CHECKS FOR EQUILIBRIUM ITERATION     2


 AVERAGE FORCE                      3.675E-08   TIME AVG. FORCE       1.000E-02
 LARGEST RESIDUAL FORCE            -3.522E-07   AT NODE          1   DOF  2
   INSTANCE: REFPOINT-0                                                                      
 LARGEST INCREMENT OF DISP.        -0.589       AT NODE        401   DOF  3
   INSTANCE: PART-1-1                                                                        
 LARGEST CORRECTION TO DISP.        1.391E-03   AT NODE        401   DOF  3
   INSTANCE: PART-1-1                                                                        
          THE FORCE     IS ZERO EVERYWHERE BUT THE FORCE     RESIDUAL OR
          THE DISP.    CORRECTION IS NON-ZERO

 AVERAGE MOMENT                     2.637E-06   TIME AVG. MOMENT      1.981E-06
 LARGEST RESIDUAL MOMENT            7.997E-09   AT NODE        399   DOF  4
   INSTANCE: PART-1-1                                                                        
 LARGEST INCREMENT OF ROTATION     -1.008E-02   AT NODE        404   DOF  4
   INSTANCE: PART-1-1                                                                        
 LARGEST CORRECTION TO ROTATION     8.256E-05   AT NODE        404   DOF  4
   INSTANCE: PART-1-1                                                                        
          THE MOMENT    EQUILIBRIUM EQUATIONS HAVE CONVERGED

  NUMBER OF EQUATIONS =      2415     NUMBER OF RHS =    1
  NUMBER OF FLOATING PT. OPERATIONS =  5.10E+06

     CHECK POINT   START OF SOLVER    

     CHECK POINT  END OF SOLVER       

       ELAPSED USER TIME (SEC)      =  1.00000E-02
       ELAPSED SYSTEM TIME (SEC)    =   0.0000    
       ELAPSED TOTAL CPU TIME (SEC) =  1.00000E-02
       ELAPSED WALLCLOCK TIME (SEC) =          0

               CONVERGENCE CHECKS FOR EQUILIBRIUM ITERATION     3


 AVERAGE FORCE                      3.582E-08   TIME AVG. FORCE       1.000E-02
 LARGEST RESIDUAL FORCE            -3.653E-08   AT NODE          1   DOF  2
   INSTANCE: REFPOINT-0                                                                      
 LARGEST INCREMENT OF DISP.        -0.589       AT NODE        401   DOF  3
   INSTANCE: PART-1-1                                                                        
 LARGEST CORRECTION TO DISP.        3.446E-04   AT NODE          1   DOF  3
   INSTANCE: REFPOINT-0                                                                      
          THERE IS ZERO FORCE     EVERYWHERE
 

 ***WARNING: THERE IS ZERO FORCE EVERYWHERE IN THE MODEL BASED ON THE DEFAULT 
             CRITERION. PLEASE CHECK THE VALUE OF THE AVERAGE FORCE DURING THE 
             CURRENT ITERATION TO VERIFY THAT THE FORCE IS SMALL ENOUGH TO BE 
             TREATED AS ZERO. IF NOT, PLEASE USE THE SOLUTION CONTROLS TO RESET 
             THE CRITERION FOR ZERO FORCE.

 AVERAGE MOMENT                     2.642E-06   TIME AVG. MOMENT      1.982E-06
 LARGEST RESIDUAL MOMENT            1.032E-11   AT NODE        318   DOF  5
   INSTANCE: PART-1-1                                                                        
 LARGEST INCREMENT OF ROTATION     -1.006E-02   AT NODE        401   DOF  4
   INSTANCE: PART-1-1                                                                        
 LARGEST CORRECTION TO ROTATION     2.644E-05   AT NODE        404   DOF  4
   INSTANCE: PART-1-1                                                                        
          THE MOMENT    EQUILIBRIUM EQUATIONS HAVE CONVERGED
          TIME INCREMENT MAY NOW INCREASE TO    1.320E-02

 ITERATION SUMMARY FOR THE INCREMENT:   3 TOTAL ITERATIONS, OF WHICH
   0 ARE SEVERE DISCONTINUITY ITERATIONS AND  3 ARE EQUILIBRIUM ITERATIONS.

 TIME INCREMENT COMPLETED  8.799E-03,  FRACTION OF STEP COMPLETED  5.020E-02
 STEP TIME COMPLETED       0.100    ,  TOTAL TIME COMPLETED        0.100    


  INCREMENT     5 STARTS. ATTEMPT NUMBER  1, TIME INCREMENT  1.320E-02

  NUMBER OF EQUATIONS =      2415     NUMBER OF RHS =    1
  NUMBER OF FLOATING PT. OPERATIONS =  5.10E+06

     CHECK POINT   START OF SOLVER    

     CHECK POINT  END OF SOLVER       

       ELAPSED USER TIME (SEC)      =   0.0000    
       ELAPSED SYSTEM TIME (SEC)    =   0.0000    
       ELAPSED TOTAL CPU TIME (SEC) =   0.0000    
       ELAPSED WALLCLOCK TIME (SEC) =          0

               CONVERGENCE CHECKS FOR EQUILIBRIUM ITERATION     1


 AVERAGE FORCE                      7.692E-06   TIME AVG. FORCE       7.692E-06
 LARGEST RESIDUAL FORCE            -9.818E-04   AT NODE          1   DOF  2
   INSTANCE: REFPOINT-0                                                                      
 LARGEST INCREMENT OF DISP.         -1.07       AT NODE        401   DOF  3
   INSTANCE: PART-1-1                                                                        
 LARGEST CORRECTION TO DISP.       -0.184       AT NODE          1   DOF  3
   INSTANCE: REFPOINT-0                                                                      
          FORCE     EQUILIBRIUM NOT ACHIEVED WITHIN TOLERANCE.

 AVERAGE MOMENT                     7.046E-06   TIME AVG. MOMENT      2.995E-06
 LARGEST RESIDUAL MOMENT           -9.673E-05   AT NODE        386   DOF  4
   INSTANCE: PART-1-1                                                                        
 LARGEST INCREMENT OF ROTATION     -1.952E-02   AT NODE        404   DOF  4
   INSTANCE: PART-1-1                                                                        
 LARGEST CORRECTION TO ROTATION    -4.436E-03   AT NODE        404   DOF  4
   INSTANCE: PART-1-1                                                                        
          MOMENT    EQUILIBRIUM NOT ACHIEVED WITHIN TOLERANCE.

  NUMBER OF EQUATIONS =      2415     NUMBER OF RHS =    1
  NUMBER OF FLOATING PT. OPERATIONS =  5.10E+06

     CHECK POINT   START OF SOLVER    

     CHECK POINT  END OF SOLVER       

       ELAPSED USER TIME (SEC)      =  1.00000E-02
       ELAPSED SYSTEM TIME (SEC)    =   0.0000    
       ELAPSED TOTAL CPU TIME (SEC) =  1.00000E-02
       ELAPSED WALLCLOCK TIME (SEC) =          0

               CONVERGENCE CHECKS FOR EQUILIBRIUM ITERATION     2


 AVERAGE FORCE                      1.023E-07   TIME AVG. FORCE       1.023E-07
 LARGEST RESIDUAL FORCE            -2.373E-06   AT NODE          1   DOF  2
   INSTANCE: REFPOINT-0                                                                      
 LARGEST INCREMENT OF DISP.         -1.06       AT NODE        401   DOF  3
   INSTANCE: PART-1-1                                                                        
 LARGEST CORRECTION TO DISP.        6.635E-03   AT NODE          1   DOF  3
   INSTANCE: REFPOINT-0                                                                      
          FORCE     EQUILIBRIUM NOT ACHIEVED WITHIN TOLERANCE.

 AVERAGE MOMENT                     3.182E-06   TIME AVG. MOMENT      2.222E-06
 LARGEST RESIDUAL MOMENT           -5.296E-07   AT NODE        199   DOF  4
   INSTANCE: PART-1-1                                                                        
 LARGEST INCREMENT OF ROTATION     -1.930E-02   AT NODE        404   DOF  4
   INSTANCE: PART-1-1                                                                        
 LARGEST CORRECTION TO ROTATION     3.617E-04   AT NODE        131   DOF  5
   INSTANCE: PART-1-1                                                                        
          MOMENT    EQUILIBRIUM NOT ACHIEVED WITHIN TOLERANCE.

  NUMBER OF EQUATIONS =      2415     NUMBER OF RHS =    1
  NUMBER OF FLOATING PT. OPERATIONS =  5.10E+06

     CHECK POINT   START OF SOLVER    

     CHECK POINT  END OF SOLVER       

       ELAPSED USER TIME (SEC)      =  1.00000E-02
       ELAPSED SYSTEM TIME (SEC)    =   0.0000    
       ELAPSED TOTAL CPU TIME (SEC) =  1.00000E-02
       ELAPSED WALLCLOCK TIME (SEC) =          0

               CONVERGENCE CHECKS FOR EQUILIBRIUM ITERATION     3


 AVERAGE FORCE                      3.015E-07   TIME AVG. FORCE       3.015E-07
 LARGEST RESIDUAL FORCE            -8.007E-05   AT NODE          1   DOF  2
   INSTANCE: REFPOINT-0                                                                      
 LARGEST INCREMENT OF DISP.         -1.04       AT NODE        401   DOF  3
   INSTANCE: PART-1-1                                                                        
 LARGEST CORRECTION TO DISP.        2.034E-02   AT NODE          1   DOF  3
   INSTANCE: REFPOINT-0                                                                      
          FORCE     EQUILIBRIUM NOT ACHIEVED WITHIN TOLERANCE.

 AVERAGE MOMENT                     3.131E-06   TIME AVG. MOMENT      2.212E-06
 LARGEST RESIDUAL MOMENT           -8.329E-08   AT NODE        374   DOF  4
   INSTANCE: PART-1-1                                                                        
 LARGEST INCREMENT OF ROTATION     -1.806E-02   AT NODE        404   DOF  4
   INSTANCE: PART-1-1                                                                        
 LARGEST CORRECTION TO ROTATION     1.243E-03   AT NODE        404   DOF  4
   INSTANCE: PART-1-1                                                                        
          MOMENT    EQUILIBRIUM NOT ACHIEVED WITHIN TOLERANCE.

  NUMBER OF EQUATIONS =      2415     NUMBER OF RHS =    1
  NUMBER OF FLOATING PT. OPERATIONS =  5.10E+06

     CHECK POINT   START OF SOLVER    

     CHECK POINT  END OF SOLVER       

       ELAPSED USER TIME (SEC)      =  1.00000E-02
       ELAPSED SYSTEM TIME (SEC)    =   0.0000    
       ELAPSED TOTAL CPU TIME (SEC) =  1.00000E-02
       ELAPSED WALLCLOCK TIME (SEC) =          0

               CONVERGENCE CHECKS FOR EQUILIBRIUM ITERATION     4


 AVERAGE FORCE                      4.425E-08   TIME AVG. FORCE       1.000E-02
 LARGEST RESIDUAL FORCE            -7.068E-09   AT NODE          1   DOF  2
   INSTANCE: REFPOINT-0                                                                      
 LARGEST INCREMENT OF DISP.         -1.04       AT NODE        401   DOF  3
   INSTANCE: PART-1-1                                                                        
 LARGEST CORRECTION TO DISP.        1.792E-04   AT NODE        401   DOF  3
   INSTANCE: PART-1-1                                                                        
          THERE IS ZERO FORCE     EVERYWHERE
 

 ***WARNING: THERE IS ZERO FORCE EVERYWHERE IN THE MODEL BASED ON THE DEFAULT 
             CRITERION. PLEASE CHECK THE VALUE OF THE AVERAGE FORCE DURING THE 
             CURRENT ITERATION TO VERIFY THAT THE FORCE IS SMALL ENOUGH TO BE 
             TREATED AS ZERO. IF NOT, PLEASE USE THE SOLUTION CONTROLS TO RESET 
             THE CRITERION FOR ZERO FORCE.

 AVERAGE MOMENT                     3.174E-06   TIME AVG. MOMENT      2.221E-06
 LARGEST RESIDUAL MOMENT            1.052E-09   AT NODE        399   DOF  4
   INSTANCE: PART-1-1                                                                        
 LARGEST INCREMENT OF ROTATION     -1.804E-02   AT NODE        401   DOF  4
   INSTANCE: PART-1-1                                                                        
 LARGEST CORRECTION TO ROTATION     1.514E-05   AT NODE        253   DOF  5
   INSTANCE: PART-1-1                                                                        
          THE MOMENT    EQUILIBRIUM EQUATIONS HAVE CONVERGED
          TIME INCREMENT MAY NOW INCREASE TO    1.980E-02

 ITERATION SUMMARY FOR THE INCREMENT:   4 TOTAL ITERATIONS, OF WHICH
   0 ARE SEVERE DISCONTINUITY ITERATIONS AND  4 ARE EQUILIBRIUM ITERATIONS.

 TIME INCREMENT COMPLETED  1.320E-02,  FRACTION OF STEP COMPLETED  5.680E-02
 STEP TIME COMPLETED       0.114    ,  TOTAL TIME COMPLETED        0.114    


  INCREMENT     6 STARTS. ATTEMPT NUMBER  1, TIME INCREMENT  1.980E-02

  NUMBER OF EQUATIONS =      2415     NUMBER OF RHS =    1
  NUMBER OF FLOATING PT. OPERATIONS =  5.10E+06

     CHECK POINT   START OF SOLVER    

     CHECK POINT  END OF SOLVER       

       ELAPSED USER TIME (SEC)      =  1.00000E-02
       ELAPSED SYSTEM TIME (SEC)    =   0.0000    
       ELAPSED TOTAL CPU TIME (SEC) =  1.00000E-02
       ELAPSED WALLCLOCK TIME (SEC) =          0
 

 ***WARNING: THE SYSTEM MATRIX HAS 1 NEGATIVE EIGENVALUES.
             EXPLANATIONS ARE SUGGESTED AFTER THE FIRST OCCURRENCE OF THIS MESSAGE.

               CONVERGENCE CHECKS FOR EQUILIBRIUM ITERATION     1


 AVERAGE FORCE                      4.312E-04   TIME AVG. FORCE       4.312E-04
 LARGEST RESIDUAL FORCE            -8.749E-02   AT NODE          1   DOF  2
   INSTANCE: REFPOINT-0                                                                      
 LARGEST INCREMENT OF DISP.         -2.62       AT NODE        401   DOF  3
   INSTANCE: PART-1-1                                                                        
 LARGEST CORRECTION TO DISP.        -1.06       AT NODE        401   DOF  3
   INSTANCE: PART-1-1                                                                        
          FORCE     EQUILIBRIUM NOT ACHIEVED WITHIN TOLERANCE.

 AVERAGE MOMENT                     4.817E-05   TIME AVG. MOMENT      9.879E-06
 LARGEST RESIDUAL MOMENT           -1.724E-03   AT NODE        302   DOF  5
   INSTANCE: PART-1-1                                                                        
 LARGEST INCREMENT OF ROTATION     -7.009E-02   AT NODE        401   DOF  4
   INSTANCE: PART-1-1                                                                        
 LARGEST CORRECTION TO ROTATION    -4.303E-02   AT NODE        401   DOF  4
   INSTANCE: PART-1-1                                                                        
          MOMENT    EQUILIBRIUM NOT ACHIEVED WITHIN TOLERANCE.

  NUMBER OF EQUATIONS =      2415     NUMBER OF RHS =    1
  NUMBER OF FLOATING PT. OPERATIONS =  5.10E+06

     CHECK POINT   START OF SOLVER    

     CHECK POINT  END OF SOLVER       

       ELAPSED USER TIME (SEC)      =  1.00000E-02
       ELAPSED SYSTEM TIME (SEC)    =   0.0000    
       ELAPSED TOTAL CPU TIME (SEC) =  1.00000E-02
       ELAPSED WALLCLOCK TIME (SEC) =          0

               CONVERGENCE CHECKS FOR EQUILIBRIUM ITERATION     2


 AVERAGE FORCE                      2.269E-05   TIME AVG. FORCE       2.269E-05
 LARGEST RESIDUAL FORCE            -6.634E-04   AT NODE         56   DOF  1
   INSTANCE: PART-1-1                                                                        
 LARGEST INCREMENT OF DISP.         -2.62       AT NODE        401   DOF  3
   INSTANCE: PART-1-1                                                                        
 LARGEST CORRECTION TO DISP.        2.654E-02   AT NODE        321   DOF  1
   INSTANCE: PART-1-1                                                                        
          FORCE     EQUILIBRIUM NOT ACHIEVED WITHIN TOLERANCE.

 AVERAGE MOMENT                     8.552E-06   TIME AVG. MOMENT      3.276E-06
 LARGEST RESIDUAL MOMENT           -2.244E-04   AT NODE         71   DOF  4
   INSTANCE: PART-1-1                                                                        
 LARGEST INCREMENT OF ROTATION     -6.998E-02   AT NODE        401   DOF  4
   INSTANCE: PART-1-1                                                                        
 LARGEST CORRECTION TO ROTATION    -8.351E-03   AT NODE         56   DOF  5
   INSTANCE: PART-1-1                                                                        
          MOMENT    EQUILIBRIUM NOT ACHIEVED WITHIN TOLERANCE.

  NUMBER OF EQUATIONS =      2415     NUMBER OF RHS =    1
  NUMBER OF FLOATING PT. OPERATIONS =  5.10E+06

     CHECK POINT   START OF SOLVER    

     CHECK POINT  END OF SOLVER       

       ELAPSED USER TIME (SEC)      =  1.00000E-02
       ELAPSED SYSTEM TIME (SEC)    =   0.0000    
       ELAPSED TOTAL CPU TIME (SEC) =  1.00000E-02
       ELAPSED WALLCLOCK TIME (SEC) =          0
 

 ***WARNING: THE SYSTEM MATRIX HAS 1 NEGATIVE EIGENVALUES.
             EXPLANATIONS ARE SUGGESTED AFTER THE FIRST OCCURRENCE OF THIS MESSAGE.

               CONVERGENCE CHECKS FOR EQUILIBRIUM ITERATION     3


 AVERAGE FORCE                      3.706E-03   TIME AVG. FORCE       3.706E-03
 LARGEST RESIDUAL FORCE            -0.725       AT NODE          1   DOF  2
   INSTANCE: REFPOINT-0                                                                      
 LARGEST INCREMENT OF DISP.         -3.89       AT NODE        401   DOF  3
   INSTANCE: PART-1-1                                                                        
 LARGEST CORRECTION TO DISP.        -1.28       AT NODE        401   DOF  3
   INSTANCE: PART-1-1                                                                        
          FORCE     EQUILIBRIUM NOT ACHIEVED WITHIN TOLERANCE.

 AVERAGE MOMENT                     2.531E-03   TIME AVG. MOMENT      4.237E-04
 LARGEST RESIDUAL MOMENT            9.458E-02   AT NODE        294   DOF  5
   INSTANCE: PART-1-1                                                                        
 LARGEST INCREMENT OF ROTATION     -0.192       AT NODE        404   DOF  4
   INSTANCE: PART-1-1                                                                        
 LARGEST CORRECTION TO ROTATION    -0.133       AT NODE        293   DOF  5
   INSTANCE: PART-1-1                                                                        
          MOMENT    EQUILIBRIUM NOT ACHIEVED WITHIN TOLERANCE.

  NUMBER OF EQUATIONS =      2415     NUMBER OF RHS =    1
  NUMBER OF FLOATING PT. OPERATIONS =  5.10E+06

     CHECK POINT   START OF SOLVER    

     CHECK POINT  END OF SOLVER       

       ELAPSED USER TIME (SEC)      =   0.0000    
       ELAPSED SYSTEM TIME (SEC)    =   0.0000    
       ELAPSED TOTAL CPU TIME (SEC) =   0.0000    
[...]


 AVERAGE FORCE                      6.347E-05   TIME AVG. FORCE       2.747E-06
 LARGEST RESIDUAL FORCE             1.636E-03   AT NODE          1   DOF  3
   INSTANCE: REFPOINT-0                                                                      
 LARGEST INCREMENT OF DISP.         2.802E-02   AT NODE        401   DOF  2
   INSTANCE: PART-1-1                                                                        
 LARGEST CORRECTION TO DISP.       -0.274       AT NODE        401   DOF  2
   INSTANCE: PART-1-1                                                                        
          FORCE     EQUILIBRIUM NOT ACHIEVED WITHIN TOLERANCE.

 AVERAGE MOMENT                     3.701E-05   TIME AVG. MOMENT      2.242E-05
 LARGEST RESIDUAL MOMENT           -1.503E-05   AT NODE        399   DOF  4
   INSTANCE: PART-1-1                                                                        
 LARGEST INCREMENT OF ROTATION      6.060E-04   AT NODE        401   DOF  4
   INSTANCE: PART-1-1                                                                        
 LARGEST CORRECTION TO ROTATION    -5.713E-03   AT NODE        404   DOF  4
   INSTANCE: PART-1-1                                                                        
          MOMENT    EQUILIBRIUM NOT ACHIEVED WITHIN TOLERANCE.

  NUMBER OF EQUATIONS =      2415     NUMBER OF RHS =    1
  NUMBER OF FLOATING PT. OPERATIONS =  5.10E+06

     CHECK POINT   START OF SOLVER    

     CHECK POINT  END OF SOLVER       

       ELAPSED USER TIME (SEC)      =  1.00000E-02
       ELAPSED SYSTEM TIME (SEC)    =   0.0000    
       ELAPSED TOTAL CPU TIME (SEC) =  1.00000E-02
       ELAPSED WALLCLOCK TIME (SEC) =          0

               CONVERGENCE CHECKS FOR EQUILIBRIUM ITERATION     2


 AVERAGE FORCE                      4.414E-06   TIME AVG. FORCE       2.044E-06
 LARGEST RESIDUAL FORCE             3.582E-07   AT NODE        265   DOF  1
   INSTANCE: PART-1-1                                                                        
 LARGEST INCREMENT OF DISP.         2.761E-02   AT NODE        401   DOF  2
   INSTANCE: PART-1-1                                                                        
 LARGEST CORRECTION TO DISP.        1.002E-03   AT NODE        401   DOF  1
   INSTANCE: PART-1-1                                                                        
          FORCE     EQUILIBRIUM NOT ACHIEVED WITHIN TOLERANCE.

 AVERAGE MOMENT                     3.680E-05   TIME AVG. MOMENT      2.241E-05
 LARGEST RESIDUAL MOMENT            1.742E-07   AT NODE        202   DOF  4
   INSTANCE: PART-1-1                                                                        
 LARGEST INCREMENT OF ROTATION      5.920E-04   AT NODE        401   DOF  4
   INSTANCE: PART-1-1                                                                        
 LARGEST CORRECTION TO ROTATION    -1.813E-04   AT NODE        268   DOF  6
   INSTANCE: PART-1-1                                                                        
          MOMENT    EQUILIBRIUM NOT ACHIEVED WITHIN TOLERANCE.

  NUMBER OF EQUATIONS =      2415     NUMBER OF RHS =    1
  NUMBER OF FLOATING PT. OPERATIONS =  5.10E+06

     CHECK POINT   START OF SOLVER    

     CHECK POINT  END OF SOLVER       

       ELAPSED USER TIME (SEC)      =  1.00000E-02
       ELAPSED SYSTEM TIME (SEC)    =   0.0000    
       ELAPSED TOTAL CPU TIME (SEC) =  1.00000E-02
       ELAPSED WALLCLOCK TIME (SEC) =          0

               CONVERGENCE CHECKS FOR EQUILIBRIUM ITERATION     3


 AVERAGE FORCE                      4.459E-06   TIME AVG. FORCE       2.045E-06
 LARGEST RESIDUAL FORCE             1.127E-07   AT NODE          1   DOF  3
   INSTANCE: REFPOINT-0                                                                      
 LARGEST INCREMENT OF DISP.         2.610E-02   AT NODE        401   DOF  2
   INSTANCE: PART-1-1                                                                        
 LARGEST CORRECTION TO DISP.       -1.516E-03   AT NODE        401   DOF  2
   INSTANCE: PART-1-1                                                                        
          FORCE     EQUILIBRIUM NOT ACHIEVED WITHIN TOLERANCE.

 AVERAGE MOMENT                     3.679E-05   TIME AVG. MOMENT      2.241E-05
 LARGEST RESIDUAL MOMENT           -1.745E-08   AT NODE         83   DOF  4
   INSTANCE: PART-1-1                                                                        
 LARGEST INCREMENT OF ROTATION      5.417E-04   AT NODE        401   DOF  4
   INSTANCE: PART-1-1                                                                        
 LARGEST CORRECTION TO ROTATION    -5.725E-05   AT NODE        240   DOF  6
   INSTANCE: PART-1-1                                                                        
          ROTATION CORRECTION TOO LARGE COMPARED TO ROTATION INCREMENT

  NUMBER OF EQUATIONS =      2415     NUMBER OF RHS =    1
  NUMBER OF FLOATING PT. OPERATIONS =  5.10E+06

     CHECK POINT   START OF SOLVER    

     CHECK POINT  END OF SOLVER       

       ELAPSED USER TIME (SEC)      =  1.00000E-02
       ELAPSED SYSTEM TIME (SEC)    =   0.0000    
       ELAPSED TOTAL CPU TIME (SEC) =  1.00000E-02
       ELAPSED WALLCLOCK TIME (SEC) =          0

               CONVERGENCE CHECKS FOR EQUILIBRIUM ITERATION     4


 AVERAGE FORCE                      4.450E-06   TIME AVG. FORCE       2.045E-06
 LARGEST RESIDUAL FORCE            -1.222E-11   AT NODE         24   DOF  2
   INSTANCE: PART-1-1                                                                        
 LARGEST INCREMENT OF DISP.         2.610E-02   AT NODE        401   DOF  2
   INSTANCE: PART-1-1                                                                        
 LARGEST CORRECTION TO DISP.        4.524E-06   AT NODE        365   DOF  1
   INSTANCE: PART-1-1                                                                        
          THE FORCE     EQUILIBRIUM EQUATIONS HAVE CONVERGED

 AVERAGE MOMENT                     3.679E-05   TIME AVG. MOMENT      2.241E-05
 LARGEST RESIDUAL MOMENT            7.706E-12   AT NODE         23   DOF  6
   INSTANCE: PART-1-1                                                                        
 LARGEST INCREMENT OF ROTATION      5.416E-04   AT NODE        404   DOF  4
   INSTANCE: PART-1-1                                                                        
 LARGEST CORRECTION TO ROTATION    -9.700E-07   AT NODE        265   DOF  6
   INSTANCE: PART-1-1                                                                        
          THE MOMENT    EQUILIBRIUM EQUATIONS HAVE CONVERGED
          TIME INCREMENT MAY NOW INCREASE TO    0.169    

 ITERATION SUMMARY FOR THE INCREMENT:   4 TOTAL ITERATIONS, OF WHICH
   0 ARE SEVERE DISCONTINUITY ITERATIONS AND  4 ARE EQUILIBRIUM ITERATIONS.

 TIME INCREMENT COMPLETED  0.113    ,  FRACTION OF STEP COMPLETED  0.697    
 STEP TIME COMPLETED        1.39    ,  TOTAL TIME COMPLETED         1.39    


  INCREMENT    96 STARTS. ATTEMPT NUMBER  1, TIME INCREMENT  0.169    

  NUMBER OF EQUATIONS =      2415     NUMBER OF RHS =    1
  NUMBER OF FLOATING PT. OPERATIONS =  5.10E+06

     CHECK POINT   START OF SOLVER    

     CHECK POINT  END OF SOLVER       

       ELAPSED USER TIME (SEC)      =  1.00000E-02
       ELAPSED SYSTEM TIME (SEC)    =   0.0000    
       ELAPSED TOTAL CPU TIME (SEC) =  1.00000E-02
       ELAPSED WALLCLOCK TIME (SEC) =          0

               CONVERGENCE CHECKS FOR EQUILIBRIUM ITERATION     1


 AVERAGE FORCE                      1.150E-05   TIME AVG. FORCE       2.156E-06
 LARGEST RESIDUAL FORCE             2.035E-04   AT NODE          1   DOF  3
   INSTANCE: REFPOINT-0                                                                      
 LARGEST INCREMENT OF DISP.        -5.816E-02   AT NODE        401   DOF  2
   INSTANCE: PART-1-1                                                                        
 LARGEST CORRECTION TO DISP.       -9.731E-02   AT NODE        401   DOF  2
   INSTANCE: PART-1-1                                                                        
          FORCE     EQUILIBRIUM NOT ACHIEVED WITHIN TOLERANCE.

 AVERAGE MOMENT                     3.687E-05   TIME AVG. MOMENT      2.256E-05
 LARGEST RESIDUAL MOMENT            1.960E-07   AT NODE        398   DOF  4
   INSTANCE: PART-1-1                                                                        
 LARGEST INCREMENT OF ROTATION     -1.211E-03   AT NODE        404   DOF  4
   INSTANCE: PART-1-1                                                                        
 LARGEST CORRECTION TO ROTATION    -2.024E-03   AT NODE        404   DOF  4
   INSTANCE: PART-1-1                                                                        
          MOMENT    EQUILIBRIUM NOT ACHIEVED WITHIN TOLERANCE.

  NUMBER OF EQUATIONS =      2415     NUMBER OF RHS =    1
  NUMBER OF FLOATING PT. OPERATIONS =  5.10E+06

     CHECK POINT   START OF SOLVER    

     CHECK POINT  END OF SOLVER       

       ELAPSED USER TIME (SEC)      =  1.00000E-02
       ELAPSED SYSTEM TIME (SEC)    =   0.0000    
       ELAPSED TOTAL CPU TIME (SEC) =  1.00000E-02
       ELAPSED WALLCLOCK TIME (SEC) =          0

               CONVERGENCE CHECKS FOR EQUILIBRIUM ITERATION     2


 AVERAGE FORCE                      4.455E-06   TIME AVG. FORCE       2.073E-06
 LARGEST RESIDUAL FORCE            -6.219E-10   AT NODE          1   DOF  3
   INSTANCE: REFPOINT-0                                                                      
 LARGEST INCREMENT OF DISP.        -5.821E-02   AT NODE        401   DOF  2
   INSTANCE: PART-1-1                                                                        
 LARGEST CORRECTION TO DISP.        8.672E-05   AT NODE        401   DOF  3
   INSTANCE: PART-1-1                                                                        
          THE FORCE     EQUILIBRIUM EQUATIONS HAVE CONVERGED

 AVERAGE MOMENT                     3.683E-05   TIME AVG. MOMENT      2.256E-05
 LARGEST RESIDUAL MOMENT           -5.126E-11   AT NODE        148   DOF  6
   INSTANCE: PART-1-1                                                                        
 LARGEST INCREMENT OF ROTATION     -1.211E-03   AT NODE        404   DOF  4
   INSTANCE: PART-1-1                                                                        
 LARGEST CORRECTION TO ROTATION    -1.957E-07   AT NODE        257   DOF  6
   INSTANCE: PART-1-1                                                                        
          THE MOMENT    EQUILIBRIUM EQUATIONS HAVE CONVERGED
          TIME INCREMENT MAY NOW INCREASE TO    0.253    

 ITERATION SUMMARY FOR THE INCREMENT:   2 TOTAL ITERATIONS, OF WHICH
   0 ARE SEVERE DISCONTINUITY ITERATIONS AND  2 ARE EQUILIBRIUM ITERATIONS.

 TIME INCREMENT COMPLETED  0.169    ,  FRACTION OF STEP COMPLETED  0.781    
 STEP TIME COMPLETED        1.56    ,  TOTAL TIME COMPLETED         1.56    


  INCREMENT    97 STARTS. ATTEMPT NUMBER  1, TIME INCREMENT  0.253    

  NUMBER OF EQUATIONS =      2415     NUMBER OF RHS =    1
  NUMBER OF FLOATING PT. OPERATIONS =  5.10E+06

     CHECK POINT   START OF SOLVER    

     CHECK POINT  END OF SOLVER       

       ELAPSED USER TIME (SEC)      =  1.00000E-02
       ELAPSED SYSTEM TIME (SEC)    =   0.0000    
       ELAPSED TOTAL CPU TIME (SEC) =  1.00000E-02
       ELAPSED WALLCLOCK TIME (SEC) =          0

               CONVERGENCE CHECKS FOR EQUILIBRIUM ITERATION     1


 AVERAGE FORCE                      8.098E-06   TIME AVG. FORCE       2.143E-06
 LARGEST RESIDUAL FORCE             1.077E-04   AT NODE          1   DOF  3
   INSTANCE: REFPOINT-0                                                                      
 LARGEST INCREMENT OF DISP.        -1.643E-02   AT NODE        401   DOF  2
   INSTANCE: PART-1-1                                                                        
 LARGEST CORRECTION TO DISP.        7.088E-02   AT NODE        401   DOF  2
   INSTANCE: PART-1-1                                                                        
          FORCE     EQUILIBRIUM NOT ACHIEVED WITHIN TOLERANCE.

 AVERAGE MOMENT                     3.687E-05   TIME AVG. MOMENT      2.271E-05
 LARGEST RESIDUAL MOMENT            3.553E-07   AT NODE        399   DOF  4
   INSTANCE: PART-1-1                                                                        
 LARGEST INCREMENT OF ROTATION     -3.422E-04   AT NODE        404   DOF  4
   INSTANCE: PART-1-1                                                                        
 LARGEST CORRECTION TO ROTATION     1.475E-03   AT NODE        401   DOF  4
   INSTANCE: PART-1-1                                                                        
          MOMENT    EQUILIBRIUM NOT ACHIEVED WITHIN TOLERANCE.

  NUMBER OF EQUATIONS =      2415     NUMBER OF RHS =    1
  NUMBER OF FLOATING PT. OPERATIONS =  5.10E+06

     CHECK POINT   START OF SOLVER    

     CHECK POINT  END OF SOLVER       

       ELAPSED USER TIME (SEC)      =  1.00000E-02
       ELAPSED SYSTEM TIME (SEC)    =   0.0000    
       ELAPSED TOTAL CPU TIME (SEC) =  1.00000E-02
       ELAPSED WALLCLOCK TIME (SEC) =          0

               CONVERGENCE CHECKS FOR EQUILIBRIUM ITERATION     2


 AVERAGE FORCE                      4.457E-06   TIME AVG. FORCE       2.101E-06
 LARGEST RESIDUAL FORCE            -1.831E-10   AT NODE          1   DOF  3
   INSTANCE: REFPOINT-0                                                                      
 LARGEST INCREMENT OF DISP.        -1.645E-02   AT NODE        401   DOF  2
   INSTANCE: PART-1-1                                                                        
 LARGEST CORRECTION TO DISP.        4.264E-05   AT NODE          1   DOF  3
   INSTANCE: REFPOINT-0                                                                      
          THE FORCE     EQUILIBRIUM EQUATIONS HAVE CONVERGED

 AVERAGE MOMENT                     3.684E-05   TIME AVG. MOMENT      2.271E-05
 LARGEST RESIDUAL MOMENT           -3.281E-11   AT NODE        132   DOF  6
   INSTANCE: PART-1-1                                                                        
 LARGEST INCREMENT OF ROTATION     -3.421E-04   AT NODE        404   DOF  4
   INSTANCE: PART-1-1                                                                        
 LARGEST CORRECTION TO ROTATION    -1.242E-06   AT NODE        264   DOF  6
   INSTANCE: PART-1-1                                                                        
          THE MOMENT    EQUILIBRIUM EQUATIONS HAVE CONVERGED

 ITERATION SUMMARY FOR THE INCREMENT:   2 TOTAL ITERATIONS, OF WHICH
   0 ARE SEVERE DISCONTINUITY ITERATIONS AND  2 ARE EQUILIBRIUM ITERATIONS.

 TIME INCREMENT COMPLETED  0.253    ,  FRACTION OF STEP COMPLETED  0.908    
 STEP TIME COMPLETED        1.82    ,  TOTAL TIME COMPLETED         1.82    


  INCREMENT    98 STARTS. ATTEMPT NUMBER  1, TIME INCREMENT  0.185    

  NUMBER OF EQUATIONS =      2415     NUMBER OF RHS =    1
  NUMBER OF FLOATING PT. OPERATIONS =  5.10E+06

     CHECK POINT   START OF SOLVER    

     CHECK POINT  END OF SOLVER       

       ELAPSED USER TIME (SEC)      =  1.00000E-02
       ELAPSED SYSTEM TIME (SEC)    =   0.0000    
       ELAPSED TOTAL CPU TIME (SEC) =  1.00000E-02
       ELAPSED WALLCLOCK TIME (SEC) =          0

               CONVERGENCE CHECKS FOR EQUILIBRIUM ITERATION     1


 AVERAGE FORCE                      4.566E-06   TIME AVG. FORCE       2.129E-06
 LARGEST RESIDUAL FORCE             4.184E-06   AT NODE          1   DOF  3
   INSTANCE: REFPOINT-0                                                                      
 LARGEST INCREMENT OF DISP.         1.951E-03   AT NODE        401   DOF  2
   INSTANCE: PART-1-1                                                                        
 LARGEST CORRECTION TO DISP.        1.394E-02   AT NODE        401   DOF  2
   INSTANCE: PART-1-1                                                                        
          FORCE     EQUILIBRIUM NOT ACHIEVED WITHIN TOLERANCE.

 AVERAGE MOMENT                     3.684E-05   TIME AVG. MOMENT      2.285E-05
 LARGEST RESIDUAL MOMENT            1.572E-09   AT NODE        398   DOF  4
   INSTANCE: PART-1-1                                                                        
 LARGEST INCREMENT OF ROTATION      4.066E-05   AT NODE        404   DOF  4
   INSTANCE: PART-1-1                                                                        
 LARGEST CORRECTION TO ROTATION     2.900E-04   AT NODE        404   DOF  4
   INSTANCE: PART-1-1                                                                        
          ROTATION CORRECTION TOO LARGE COMPARED TO ROTATION INCREMENT

  NUMBER OF EQUATIONS =      2415     NUMBER OF RHS =    1
  NUMBER OF FLOATING PT. OPERATIONS =  5.10E+06

     CHECK POINT   START OF SOLVER    

     CHECK POINT  END OF SOLVER       

       ELAPSED USER TIME (SEC)      =  1.00000E-02
       ELAPSED SYSTEM TIME (SEC)    =   0.0000    
       ELAPSED TOTAL CPU TIME (SEC) =  1.00000E-02
       ELAPSED WALLCLOCK TIME (SEC) =          0

               CONVERGENCE CHECKS FOR EQUILIBRIUM ITERATION     2


 AVERAGE FORCE                      4.458E-06   TIME AVG. FORCE       2.128E-06
 LARGEST RESIDUAL FORCE             6.935E-12   AT NODE        367   DOF  3
   INSTANCE: PART-1-1                                                                        
 LARGEST INCREMENT OF DISP.         1.950E-03   AT NODE        401   DOF  2
   INSTANCE: PART-1-1                                                                        
 LARGEST CORRECTION TO DISP.        1.681E-06   AT NODE        401   DOF  3
   INSTANCE: PART-1-1                                                                        
          THE FORCE     EQUILIBRIUM EQUATIONS HAVE CONVERGED

 AVERAGE MOMENT                     3.684E-05   TIME AVG. MOMENT      2.285E-05
 LARGEST RESIDUAL MOMENT            1.340E-12   AT NODE        141   DOF  6
   INSTANCE: PART-1-1                                                                        
 LARGEST INCREMENT OF ROTATION      4.066E-05   AT NODE        404   DOF  4
   INSTANCE: PART-1-1                                                                        
 LARGEST CORRECTION TO ROTATION    -4.813E-09   AT NODE         88   DOF  4
   INSTANCE: PART-1-1                                                                        
          THE MOMENT    EQUILIBRIUM EQUATIONS HAVE CONVERGED

 ITERATION SUMMARY FOR THE INCREMENT:   2 TOTAL ITERATIONS, OF WHICH
   0 ARE SEVERE DISCONTINUITY ITERATIONS AND  2 ARE EQUILIBRIUM ITERATIONS.

 TIME INCREMENT COMPLETED  0.185    ,  FRACTION OF STEP COMPLETED   1.00    
 STEP TIME COMPLETED        2.00    ,  TOTAL TIME COMPLETED         2.00    


          THE ANALYSIS HAS BEEN COMPLETED



     ANALYSIS SUMMARY:
     TOTAL OF         98  INCREMENTS
                      11  CUTBACKS IN AUTOMATIC INCREMENTATION
                     490  ITERATIONS INCLUDING CONTACT ITERATIONS IF PRESENT
                     490  PASSES THROUGH THE EQUATION SOLVER OF WHICH 
                     490  INVOLVE MATRIX DECOMPOSITION, INCLUDING
                       0  DECOMPOSITION(S) OF THE MASS MATRIX
                       1  REORDERING OF EQUATIONS TO MINIMIZE WAVEFRONT
                       0  ADDITIONAL RESIDUAL EVALUATIONS FOR LINE SEARCHES
                       0  ADDITIONAL OPERATOR EVALUATIONS FOR LINE SEARCHES
                       2  WARNING MESSAGES DURING USER INPUT PROCESSING
                      40  WARNING MESSAGES DURING ANALYSIS
                       0  ANALYSIS WARNINGS ARE NUMERICAL PROBLEM MESSAGES
                      32  ANALYSIS WARNINGS ARE NEGATIVE EIGENVALUE MESSAGES
                       0  ERROR MESSAGES



     JOB TIME SUMMARY
       USER TIME (SEC)      =   23.290    
       SYSTEM TIME (SEC)    =   1.1000    
       TOTAL CPU TIME (SEC) =   24.390    
       WALLCLOCK TIME (SEC) =         28
